[JUNCTIONS]
;ID   Elev   Demand   Pattern  
91   16.92   4.753270211544921      ;
92   15.56   0.0      ;
277   32.5   0.0      ;
278   33.27   0.0      ;
287   26.28   0.0      ;
288   25.21   2.547675197236509      ;
357   11.51   0.0      ;
358   11.01   0.0      ;
575   14.18   0.0      ;
576   11.07   0.0      ;
593   25.96   0.0      ;
594   25.11   1.5057499848583702      ;
635   31.87   0.0      ;
636   32.01   0.0      ;
704   17.49   0.0      ;
705   15.39   0.0      ;
871   12.35   0.0      ;
872   12.67   0.0      ;
907   15.54   0.0      ;
908   15.24   0.0      ;
969   20.24   0.0      ;
970   20.03   0.0      ;
975   11.92   7.456442851069438      ;
976   13.6   0.0      ;
1012   9.04   0.0      ;
1013   10.18   0.0      ;
1068   32.62   0.0      ;
1069   32.54   0.0      ;
1137   19.61   0.0      ;
1138   20.12   9.404765707480502      ;
1165   27.68   0.0      ;
1166   27.73   0.0      ;
1232   12.84   0.0      ;
1233   12.98   0.0      ;
1463   30.33   0.0      ;
1464   30.51   0.0      ;
1490   8.04   0.0      ;
1491   7.83   0.0      ;
1690   18.92   0.0      ;
1691   18.81   0.0      ;
1744   12.17   0.2935586057231478      ;
1745   12.14   0.0      ;
1781   11.51   0.0      ;
1858   32.55   0.0      ;
1859   32.12   0.0      ;
1860   14.79   0.0      ;
1861   14.79   0.0      ;
1949   7.06   0.16635439106106442      ;
1950   7.97   0.0      ;
2201   10.6   0.0      ;
2202   10.64   0.0      ;
2249   10.41   0.0      ;
2250   10.05   0.0      ;
2295   16.27   0.0      ;
2296   16.27   0.0      ;
2400   11.76   0.0      ;
2401   11.13   0.0      ;
2408   24.01   0.0      ;
2409   18.53   0.0      ;
2414   15.05   0.0      ;
2415   15.05   0.0      ;
2494   25.46   4.493048182602488      ;
2495   25.72   0.0      ;
2506   21.34   0.0      ;
2515   13.93   0.0      ;
2516   13.51   0.0      ;
2557   28.98   0.0      ;
2558   30.33   0.0      ;
2600   19.58   0.0      ;
2601   18.26   0.0      ;
2606   27.09   0.0      ;
2607   23.87   0.0      ;
2662   10.64   0.0      ;
2663   11.84   0.0      ;
2676   26.22   0.0      ;
2677   24.28   2.378920994769521      ;
2767   13.06   0.0      ;
2768   13.06   0.0      ;
2851   14.95   0.0      ;
2852   15.26   0.0      ;
2853   14.04   0.0      ;
2854   11.56   0.0      ;
2889   11.01   0.0      ;
2890   11.9   0.0      ;
2957   11.45   1.507158971010289      ;
2958   11.21   0.0      ;
2991   15.07   0.0      ;
2992   15.07   0.0      ;
3106   13.0   0.0      ;
3107   13.9   0.0      ;
3158   25.17   0.0      ;
3159   24.74   0.0      ;
3217   9.29   0.0      ;
3218   9.51   0.0      ;
3229   25.58   0.0      ;
3230   25.83   0.0      ;
3584   18.02   0.0      ;
3585   18.69   0.0      ;
3635   15.89   4.162265762565173      ;
3636   13.43   8.96994799943466      ;
3643   18.44   3.5825490911842555      ;
3644   17.81   0.0      ;
3748   28.42   4.742133914659804      ;
3749   28.22   5.882433953052181      ;
3773   10.82   0.0      ;
3774   9.98   0.0      ;
3781   13.96   0.0      ;
3782   14.73   0.6193047317693229      ;
3800   29.92   0.0      ;
3801   29.66   4.42846341759517      ;
3810   13.87   0.0      ;
3811   12.54   3.5834964716163977      ;
3887   18.34   0.0      ;
3888   17.47   0.0      ;
3928   20.83   0.0      ;
3929   20.68   0.0      ;
3950   18.85   0.0      ;
3951   18.43   1.810175505915091      ;
4019   11.1   0.0      ;
4020   11.63   0.0      ;
4099   9.06   1.8489091979481125      ;
4100   8.63   0.0      ;
4109   9.77   0.0      ;
4110   8.94   0.0      ;
4135   17.57   0.0      ;
4136   16.71   0.0      ;
4157   33.33   0.0      ;
4158   33.15   0.0      ;
4205   15.42   0.0      ;
4206   16.36   0.0      ;
4217   13.91   0.0      ;
4218   13.44   0.0      ;
4247   8.52   0.0      ;
4248   7.11   0.0      ;
4275   18.36   0.0      ;
4276   21.06   0.0      ;
4335   15.97   0.0      ;
4336   15.87   4.538118135276327      ;
4363   19.39   0.0      ;
4364   16.95   4.749837879153871      ;
4522   12.65   0.0      ;
4523   12.72   0.0      ;
4582   32.23   4.825797205828714      ;
4583   31.2   0.0      ;
4618   9.47   0.0      ;
4619   10.45   0.0      ;
4666   13.54   0.0      ;
4667   13.94   0.0      ;
4668   13.59   0.0      ;
4669   13.59   0.0      ;
4672   17.97   7.826266547147811      ;
4673   17.66   3.5892260405604524      ;
4931   12.06   0.0      ;
4932   11.84   0.0      ;
4951   23.73   0.0      ;
4965   12.13   0.0      ;
4966   9.69   0.0      ;
4967   12.78   0.0      ;
4980   10.66   4.809472516466522      ;
4981   10.29   0.0      ;
4986   31.41   0.0      ;
4987   28.8   0.0      ;
5009   27.61   0.0      ;
5010   27.61   0.0      ;
5079   12.66   0.0      ;
5080   11.35   0.0      ;
5149   20.68   0.0      ;
5227   14.87   0.0      ;
5228   14.87   0.0      ;
5241   15.0   0.0      ;
5242   15.0   0.0      ;
5327   18.84   0.0      ;
5328   18.14   8.071204178801342      ;
5367   18.13   0.0      ;
5368   19.17   0.0      ;
5420   6.66   0.0      ;
5421   6.66   0.0      ;
5579   18.05   0.0      ;
5580   17.7   0.0      ;
5636   21.97   0.0      ;
5637   22.35   0.0      ;
5704   29.72   0.0      ;
5705   29.96   0.0      ;
6106   31.34   3.0425800563848053      ;
6107   32.29   0.0      ;
6242   12.58   0.38231978382971876      ;
6243   16.24   0.0      ;
6393   9.57   0.0      ;
6394   9.18   0.0      ;
6417   13.27   0.0      ;
6418   13.78   0.0      ;
6519   15.45   5.353826174096088      ;
6559   8.58   0.0      ;
6560   8.58   0.0      ;
6590   13.82   0.0      ;
6591   11.84   3.6211453178388466      ;
6606   8.72   0.0      ;
6607   8.5   0.0      ;
6697   9.22   0.0      ;
6698   9.11   0.0      ;
6773   10.11   0.0      ;
6774   10.04   0.0      ;
6971   29.23   8.115460685298121      ;
6972   29.83   5.263278369322554      ;
6973   27.23   0.0      ;
6974   26.95   0.0      ;
7032   11.62   0.0      ;
7033   11.62   0.0      ;
7040   32.49   0.0      ;
7041   32.43   0.0      ;
7104   19.05   0.0      ;
7105   18.3   0.0      ;
7181   13.43   0.0      ;
7182   13.27   0.0      ;
7233   13.05   0.0      ;
7234   12.41   0.0      ;
7270   21.52   0.0      ;
7271   20.68   3.438835620645288      ;
7325   20.63   0.0      ;
7326   21.25   0.0      ;
7354   10.39   0.0      ;
7355   10.87   0.0      ;
7386   15.46   0.0      ;
7387   15.46   1.980707359250787      ;
7594   29.99   0.0      ;
7595   29.95   0.0      ;
7604   9.56   0.0      ;
7605   11.18   0.0      ;
7718   9.38   0.0      ;
7719   10.41   0.16924062007577179      ;
7805   27.8   0.0      ;
7806   28.31   0.0      ;
7926   7.06   0.0      ;
7927   7.59   0.0      ;
7934   17.17   0.0      ;
7935   18.28   0.0      ;
7973   26.63   2.3659502325221062      ;
7974   24.87   0.0      ;
8201   10.53   0.0      ;
8315   32.58   3.587794060450819      ;
8316   33.49   0.0      ;
8325   15.37   2.8798134711403196      ;
8326   15.21   0.0      ;
8342   23.22   6.6856097355067945      ;
8364   27.19   0.0      ;
8489   19.24   0.0      ;
8490   22.35   0.0      ;
8529   10.96   0.0      ;
8530   11.0   0.0      ;
8566   10.32   0.0      ;
8567   10.4   0.0      ;
8576   11.35   0.0      ;
8577   12.25   0.0      ;
8623   32.54   0.0      ;
8736   8.74   0.0      ;
8737   8.47   0.0      ;
8828   6.49   0.0      ;
8829   6.36   0.0      ;
8870   11.11   0.0      ;
8871   10.42   0.8380444475069769      ;
8927   8.11   0.0      ;
8928   8.11   0.0      ;
9015   23.08   0.0      ;
9016   23.6   0.0      ;
9029   33.93   0.0      ;
9030   34.63   0.0      ;
9137   20.61   0.0      ;
9138   20.15   0.0      ;
9139   28.98   0.0      ;
9140   29.03   0.0      ;
9184   19.28   6.879449052250637      ;
9185   19.48   0.0      ;
9195   29.38   6.188641385677143      ;
9196   29.99   0.0      ;
9272   31.4   0.0      ;
9273   30.69   0.0      ;
9330   32.75   0.0      ;
9331   33.49   0.0      ;
9451   18.37   0.0      ;
9452   18.08   0.0      ;
9565   11.28   0.0      ;
9621   22.81   5.179840487078902      ;
9622   24.04   4.467631218616629      ;
9657   12.42   0.0      ;
9658   10.32   0.0      ;
9677   26.65   0.0      ;
9680   17.63   0.0      ;
9681   12.0   2.176806459248463      ;
9682   7.25   0.0      ;
9683   10.07   0.0      ;
9697   13.61   0.0      ;
9698   14.0   0.0      ;
9775   10.72   0.0      ;
9883   10.01   0.9358860198116611      ;
9884   10.18   0.0      ;
9913   23.14   0.0      ;
10127   13.37   0.0      ;
10128   12.88   0.0      ;
10167   24.0   0.0      ;
10168   23.39   0.0      ;
10384   17.02   0.0      ;
10385   18.32   0.0      ;
10406   11.92   0.0      ;
10407   10.93   1.8363661241292755      ;
10422   19.24   12.970114508218462      ;
10475   8.44   0.0      ;
10476   8.75   0.0      ;
10520   30.2   0.0      ;
10521   30.07   4.61785441008117      ;
10590   12.9   5.31123839957592      ;
10591   13.1   0.0      ;
10660   27.39   0.0      ;
10785   11.6   0.0      ;
10786   9.56   0.0      ;
10850   18.32   0.0      ;
10895   14.04   3.233603490517693      ;
10896   13.93   6.6462142652577185      ;
10962   9.85   0.0      ;
10963   10.23   0.5835931719782236      ;
11111   12.57   2.6880817574912372      ;
11151   16.32   0.0      ;
11152   16.02   8.281756701024667      ;
11184   13.28   0.0      ;
11185   13.51   0.0      ;
11199   13.01   25.174093191891433      ;
11217   25.53   0.0      ;
11218   25.56   0.0      ;
11277   24.09   6.074963680932857      ;
11278   22.78   3.0839538557464117      ;
11356   14.72   3.2207499348570447      ;
11357   14.66   0.0      ;
11429   10.56   0.0      ;
11430   10.56   0.0      ;
11443   16.57   0.0      ;
11444   14.89   3.4656325207799346      ;
11473   13.94   0.0      ;
11531   20.89   0.0      ;
11532   19.92   0.0      ;
11545   15.25   0.0      ;
11546   16.15   0.0      ;
11612   28.73   0.0      ;
11613   28.56   0.0      ;
11622   17.64   0.0      ;
11627   25.79   0.0      ;
11628   30.22   0.0      ;
11677   32.24   0.0      ;
11709   28.81   5.753654092505559      ;
11710   28.35   0.0      ;
11741   33.83   0.0      ;
11742   32.8   4.702636624144991      ;
11757   18.97   0.0      ;
11758   19.73   0.0      ;
11839   9.67   0.0      ;
11840   9.73   0.0      ;
11864   10.3   0.0      ;
11865   10.3   0.0      ;
11873   15.37   0.0      ;
11874   15.4   0.0      ;
11948   16.64   0.0      ;
11949   16.64   0.0      ;
11956   9.15   0.0      ;
11957   9.64   0.0      ;
12070   22.26   0.0      ;
12071   22.26   0.0      ;
12074   8.36   0.0      ;
12075   8.22   0.0      ;
12158   6.48   0.0      ;
12159   6.48   0.0      ;
12206   6.44   0.0      ;
12207   6.44   0.0      ;
12233   10.9   0.0      ;
12442   18.87   0.0      ;
12473   16.03   7.260072139288606      ;
12474   16.25   0.0      ;
12541   9.26   0.0      ;
12542   8.87   0.0      ;
12636   14.44   0.0      ;
12637   15.23   0.0      ;
12740   21.78   0.0      ;
12741   20.56   0.0      ;
12903   21.52   0.0      ;
12904   23.13   0.0      ;
12920   8.39   0.0      ;
12921   7.24   0.0      ;
13007   22.34   0.0      ;
13008   22.34   0.0      ;
13060   9.6   0.0      ;
13061   9.6   0.0      ;
13081   12.12   0.0      ;
13082   11.05   17.73986805577995      ;
13096   9.96   4.602701379393763      ;
13097   11.77   0.0      ;
13149   20.51   0.0      ;
13150   20.51   0.0      ;
13152   9.12   0.0      ;
13153   8.74   0.0      ;
13167   8.74   0.0      ;
13168   8.4   0.0      ;
13234   9.39   0.0      ;
13235   10.27   0.0      ;
13238   8.19   0.0      ;
13239   10.69   0.0      ;
13253   27.78   0.0      ;
13254   30.38   3.281495040863627      ;
13262   18.94   0.0      ;
13263   18.19   0.0      ;
13334   24.85   0.0      ;
13363   18.39   0.0      ;
13364   19.84   0.0      ;
13377   6.7   0.0      ;
13383   28.71   0.0      ;
13384   29.35   0.0      ;
13386   11.0   5.707801361253194      ;
13387   10.78   0.0      ;
13391   32.09   0.0      ;
13409   13.93   0.0      ;
13410   13.59   0.0      ;
13444   15.41   0.0      ;
13447   10.8   0.0      ;
13448   10.07   0.0      ;
13550   13.17   0.0      ;
13554   13.36   0.0      ;
13555   13.51   0.0      ;
13840   30.33   0.0      ;
13841   26.25   0.0      ;
13842   15.33   0.0      ;
13843   13.94   0.0      ;
14204   13.8   0.0      ;
14205   14.35   0.0      ;
14242   20.89   0.0      ;
14243   20.6   5.676628340724313      ;
14262   10.53   0.0      ;
14560   9.8   0.0      ;
14561   9.8   0.0      ;
14585   29.31   10.021027147013825      ;
14586   27.14   0.0      ;
14653   13.24   0.0      ;
14654   13.38   0.0      ;
14729   15.66   0.0      ;
14730   15.66   0.0      ;
14810   9.12   0.0      ;
14846   13.04   0.0      ;
14847   13.04   0.0      ;
14850   14.57   0.0      ;
14898   17.25   2.1843204485761873      ;
14899   19.16   0.0      ;
15035   27.61   0.13212553206095579      ;
15072   6.72   0.0      ;
15073   6.75   0.0      ;
15093   8.13   0.0      ;
15094   8.16   0.0      ;
15231   10.58   3.129590020346364      ;
15232   9.96   0.0      ;
15263   7.64   0.0      ;
15264   7.31   0.0      ;
15293   7.89   0.0      ;
15294   7.89   0.0      ;
15325   12.88   0.0      ;
15326   17.49   0.0      ;
15413   30.06   0.0      ;
15414   29.23   0.0      ;
15489   14.53   0.0      ;
15490   10.47   0.0      ;
15497   6.33   0.0      ;
15498   6.33   0.0      ;
15589   17.96   0.0      ;
15590   17.05   0.0      ;
15621   22.2   0.0      ;
15622   20.06   0.0      ;
15854   26.97   0.0      ;
15855   27.99   0.0      ;
15935   12.13   0.0      ;
15950   29.85   0.0      ;
15951   29.13   0.0      ;
15988   16.59   0.0      ;
15989   15.51   0.0      ;
15996   11.72   0.0      ;
16038   28.18   0.0      ;
16039   28.13   0.0      ;
16059   16.53   5.2945239605155745      ;
16060   12.22   0.0      ;
16085   29.39   11.547939222956355      ;
16086   31.69   0.0      ;
16198   18.08   0.0      ;
16199   17.82   0.0      ;
16254   11.29   0.0      ;
16255   10.86   0.0      ;
16424   6.7   0.0      ;
16425   6.7   0.0      ;
16583   10.14   0.0      ;
16584   9.56   0.0      ;
16697   12.34   0.0      ;
16758   8.98   0.0      ;
16759   9.37   0.0      ;
16794   16.8   0.0      ;
16795   14.96   4.415049301162408      ;
16873   10.94   0.0      ;
16874   12.74   0.0      ;
16889   26.28   0.0      ;
16985   33.65   16.359572444866977      ;
17003   27.8   0.0      ;
17004   29.22   0.0      ;
17098   12.61   0.0      ;
17099   11.27   0.0      ;
17112   14.25   0.0      ;
17113   13.63   0.0      ;
17176   13.03   0.0      ;
17177   13.3   0.0      ;
17195   11.63   0.0      ;
17196   9.19   0.0      ;
17352   12.87   1.6473680393873382      ;
17353   12.48   2.3896900100386818      ;
17473   18.11   0.0      ;
17474   18.71   0.0      ;
17614   9.8   0.0      ;
17615   11.88   0.0      ;
17759   8.2   0.0      ;
17760   8.86   0.0      ;
18130   11.64   0.0      ;
18131   11.01   0.0      ;
18179   8.96   0.0      ;
18180   10.27   0.0      ;
18187   25.06   0.0      ;
18261   31.07   0.0      ;
18262   29.35   5.767269116285992      ;
18281   15.16   0.0      ;
18282   15.75   5.59512013806901      ;
18402   17.99   0.0      ;
18403   17.99   0.0      ;
18423   8.4   0.0      ;
18464   15.02   0.0      ;
18475   13.59   0.0      ;
18587   9.28   0.0      ;
18588   9.28   0.0      ;
18646   12.72   4.1443202193167465      ;
18647   12.72   0.0      ;
18804   28.66   0.0      ;
18805   31.35   0.0      ;
18806   29.22   0.0      ;
18858   15.29   2.417581028369952      ;
18859   14.45   0.0      ;
19001   16.59   0.0      ;
19039   14.64   1.8318265045093942      ;
19040   19.24   2.401851142613859      ;
19041   31.39   0.0      ;
19042   32.81   0.0      ;
19077   9.77   0.0      ;
19250   12.56   0.0      ;
19251   10.78   0.0      ;
19297   12.72   0.0      ;
19298   12.9   0.0      ;
19307   9.78   0.0      ;
19308   8.95   0.0      ;
19356   15.92   0.0      ;
19357   15.92   0.0      ;
19402   20.73   0.0      ;
19480   14.14   0.0      ;
19481   13.55   0.0      ;
19494   15.65   0.0      ;
19499   15.71   0.0      ;
19500   8.6   0.0      ;
19546   19.82   0.0      ;
19547   21.75   0.0      ;
19683   20.81   0.0      ;
19684   20.84   8.36526495398553      ;
19701   22.96   0.0      ;
19702   21.95   5.157141372603584      ;
19707   10.85   1.835103334546679      ;
19708   10.22   0.0      ;
19709   11.05   3.1083339393795644      ;
19710   11.32   0.0      ;
19724   11.68   0.0      ;
19725   11.97   0.0      ;
19805   8.8   0.0      ;
19806   9.1   0.0      ;
19852   11.11   0.0      ;
19889   20.58   0.0      ;
19890   20.64   0.0      ;
19924   16.79   0.0      ;
20048   13.2   0.0      ;
20167   7.89   0.0      ;
20168   7.89   0.0      ;
20348   15.48   0.0      ;
20349   22.48   4.293837081836026      ;
20422   8.0   0.0      ;
20423   8.0   0.0      ;
20450   16.71   0.0      ;
20451   12.35   0.0      ;
20461   8.95   0.0      ;
20462   9.19   0.0      ;
20483   11.91   0.0      ;
20484   9.19   0.0      ;
20500   18.7   0.0      ;
20501   19.31   0.0      ;
20564   10.63   0.0      ;
20565   9.86   0.0      ;
20597   10.36   0.0      ;
20664   20.1   0.0      ;
20741   16.44   0.0      ;
20742   16.49   0.0      ;
20755   16.26   0.0      ;
20756   18.32   0.0      ;
20805   12.33   0.0      ;
20806   12.33   0.0      ;
20819   29.08   0.0      ;
20943   10.97   0.0      ;
20944   11.31   0.0      ;
20971   20.8   0.0      ;
20972   22.24   0.0      ;
21015   31.52   0.0      ;
21016   31.39   0.0      ;
21031   16.55   0.0      ;
21032   19.51   0.0      ;
21056   13.41   0.0      ;
21057   13.41   0.0      ;
21093   12.55   0.0      ;
21094   12.21   0.0      ;
21113   28.33   0.0      ;
21114   30.0   8.06578035858692      ;
21230   10.28   0.0      ;
21232   8.74   0.0      ;
21233   15.02   0.0      ;
21234   10.74   0.0      ;
21275   14.41   0.0      ;
21276   14.43   0.0      ;
21355   20.1   0.0      ;
21381   28.65   0.0      ;
21422   27.71   0.0      ;
21423   25.76   8.127289730508691      ;
21554   10.09   3.9950211031905276      ;
21613   12.27   0.0      ;
21614   12.21   0.0      ;
21658   12.69   0.0      ;
21659   13.57   0.0      ;
21700   9.43   0.0      ;
21709   13.0   0.0      ;
21741   9.8   0.0      ;
21887   9.52   0.0      ;
21888   9.97   0.0      ;
22001   12.04   0.0      ;
22002   12.43   0.0      ;
22034   23.98   5.133648252836846      ;
22035   23.87   0.0      ;
22082   26.01   0.0      ;
22083   16.4   0.0      ;
22281   31.69   0.0      ;
22282   30.9   1.3289317674299508      ;
22366   6.93   0.0      ;
22380   13.73   0.0      ;
22381   14.14   0.0      ;
22411   15.99   0.0      ;
22412   16.12   0.0      ;
22488   16.83   0.0      ;
22489   16.06   2.183293568078342      ;
22616   20.87   2.606519984264637      ;
22703   18.78   0.0      ;
22704   20.93   0.0      ;
22717   7.14   0.0      ;
22725   13.29   0.0      ;
22726   14.3   0.0      ;
22752   24.15   0.0      ;
22753   23.06   9.694584792439453      ;
22921   18.93   0.0      ;
22922   12.25   0.0      ;
22956   9.97   1.8326677536944453      ;
22957   9.83   0.0      ;
23082   14.31   0.0      ;
23083   13.98   0.0      ;
23133   20.3   6.709253910670169      ;
23134   20.74   0.0      ;
23221   14.15   0.0      ;
23229   14.45   0.0      ;
23319   12.99   4.460669416213158      ;
23320   12.99   0.0      ;
23346   26.65   0.0      ;
23347   26.96   0.0      ;
23554   30.45   0.0      ;
23555   31.57   0.0      ;
23567   13.05   0.0      ;
23609   25.75   0.0      ;
23698   11.5   3.6783407370674714      ;
23699   14.42   0.0      ;
23781   16.53   0.0      ;
23816   28.68   0.0      ;
23817   27.19   0.0      ;
23832   9.93   0.0      ;
23833   22.38   6.269749364655247      ;
23843   12.41   0.0      ;
23877   12.03   1.3861890441424114      ;
23878   15.85   0.0      ;
23975   9.38   0.0      ;
24002   22.67   4.092207389199974      ;
24003   22.95   0.0      ;
24068   14.05   0.0      ;
24103   14.3   0.0      ;
24144   25.37   0.0      ;
24145   26.99   0.0      ;
24225   14.23   0.0      ;
24281   10.11   0.0      ;
24282   10.11   0.0      ;
24433   18.05   0.0      ;
24519   30.52   0.0      ;
24627   21.64   0.0      ;
24640   24.17   0.0      ;
24653   12.25   0.47785136714866705      ;
24726   13.62   0.0      ;
24727   14.19   0.0      ;
24779   11.44   0.0      ;
24780   9.66   0.0      ;
24816   13.96   0.0      ;
24817   13.96   3.373890680859928      ;
24862   21.62   0.0      ;
24863   19.82   0.0      ;
24910   12.48   0.0      ;
24919   30.07   0.0      ;
24949   27.61   0.0      ;
24950   27.61   0.0      ;
24957   32.21   0.0      ;
24958   32.21   0.0      ;
25009   22.41   0.0      ;
25010   24.58   2.373519924530943      ;
25048   15.7   8.677573258157015      ;
25049   17.06   5.21706833093128      ;
25077   9.13   0.0      ;
25084   28.6   3.8025131671682084      ;
25085   31.66   2.016630575088783      ;
25090   20.69   0.0      ;
25091   6.67   0.0      ;
25100   12.78   0.0      ;
25101   10.89   0.0      ;
25123   14.36   0.0      ;
25124   14.28   0.0      ;
25132   12.86   0.0      ;
25133   11.45   0.0      ;
25135   11.1   0.0      ;
25136   10.54   0.0      ;
25230   11.97   0.0      ;
25264   18.42   0.0      ;
25266   10.39   0.0      ;
25279   30.35   3.0826102811783866      ;
25280   29.7   0.0      ;
25349   14.57   0.0      ;
25350   15.45   0.0      ;
25385   26.32   0.0      ;
25386   25.5   0.0      ;
25698   8.94   0.0      ;
25699   9.69   0.0      ;
25731   23.03   0.0      ;
25732   20.92   0.0      ;
25951   28.56   0.0      ;
25952   30.33   0.0      ;
25982   12.66   0.0      ;
25983   12.25   0.0      ;
26088   11.7   0.0      ;
26089   12.01   0.0      ;
26138   10.56   0.0      ;
26139   10.56   0.0      ;
26262   32.65   0.0      ;
26263   32.0   0.0      ;
26298   17.09   0.0      ;
26510   11.2   0.0      ;
26543   22.26   0.0      ;
26544   25.35   0.0      ;
26607   8.63   14.741128756365752      ;
26621   10.66   0.0      ;
26880   9.33   0.0      ;
26881   11.91   0.0      ;
26905   15.04   0.0      ;
26906   13.92   0.0      ;
27182   9.06   0.0      ;
27257   11.01   0.0      ;
27294   8.07   0.0      ;
27295   8.12   0.0      ;
27372   12.5   0.21411607034087232      ;
27373   13.22   0.0      ;
27496   13.24   0.9086652911348837      ;
27497   12.72   0.0      ;
27518   30.05   0.0      ;
27519   30.03   3.861520194097057      ;
27526   19.7   0.0      ;
27592   11.47   0.0      ;
27593   16.36   0.0      ;
27606   18.77   0.0      ;
27607   19.92   4.103010037693399      ;
27674   13.16   0.0      ;
27729   33.38   0.0      ;
27855   8.37   0.0      ;
27856   8.47   0.0      ;
27892   33.88   0.0      ;
28286   9.51   0.0      ;
28347   12.31   0.0      ;
28348   13.36   0.0      ;
28418   12.15   0.0      ;
28421   14.65   0.0      ;
28494   10.42   0.0      ;
28495   10.01   0.0      ;
28572   23.15   0.0      ;
28573   23.67   0.0      ;
28630   16.0   0.0      ;
28631   16.0   0.0      ;
28918   10.72   0.0      ;
28981   14.2   0.0      ;
28982   13.58   2.7053789893685303      ;
29019   11.92   0.0      ;
29053   26.47   5.536193967985761      ;
29097   17.97   0.0      ;
29098   19.15   0.0      ;
29104   16.44   0.0      ;
29159   12.12   0.0      ;
29160   11.94   0.0      ;
29299   16.81   4.7735606451786      ;
29523   14.93   0.0      ;
29524   14.72   0.0      ;
29765   10.79   0.0      ;
29880   6.03   0.0      ;
29881   10.64   0.0      ;
30018   13.69   0.0      ;
30032   8.54   0.0      ;
30033   8.64   0.0      ;
30106   14.22   0.0      ;
30107   14.08   0.0      ;
30182   16.17   0.0      ;
30217   11.81   0.0      ;
30218   9.89   0.0      ;
30391   10.62   0.0      ;
30392   10.37   8.554619076648615      ;
30472   9.89   0.0      ;
30473   9.21   0.0      ;
30483   16.89   0.0      ;
30506   10.14   0.0      ;
30507   9.76   0.0      ;
30543   11.37   0.0      ;
30544   11.83   0.0      ;
30617   18.89   2.1956096635346825      ;
30642   9.12   0.0      ;
30643   9.15   0.0      ;
30670   10.49   0.0      ;
30671   10.49   0.0      ;
30753   28.61   0.0      ;
30754   32.67   0.0      ;
30769   11.45   5.061994834969876      ;
30770   11.87   0.0      ;
30855   20.63   0.0      ;
30856   15.66   2.37839546978789      ;
31111   10.04   0.0      ;
31310   11.43   0.0      ;
31345   29.35   0.0      ;
31346   30.75   0.0      ;
31408   26.68   0.0      ;
31409   29.19   0.0      ;
31417   11.9   0.0      ;
31418   11.35   0.0      ;
31439   11.9   0.0      ;
31443   26.6   0.0      ;
31473   8.8   0.0      ;
31491   9.95   0.0      ;
31492   11.26   0.0      ;
31564   22.73   4.22577349283939      ;
31565   23.04   4.134483818144588      ;
31570   16.54   0.0      ;
31571   16.3   0.0      ;
31572   15.75   0.0      ;
31689   13.15   0.0      ;
31690   13.91   0.0      ;
31717   10.11   0.45533660947161625      ;
31718   10.53   0.0      ;
31854   24.41   0.0      ;
31855   23.18   0.0      ;
31864   17.99   0.0      ;
31940   14.03   0.0      ;
31941   10.19   0.0      ;
32031   8.28   0.0      ;
32032   8.03   0.0      ;
32057   22.66   0.0      ;
32058   22.13   0.0      ;
32059   18.91   0.0      ;
32060   15.88   0.0      ;
32072   12.2   0.0      ;
32073   3.44   0.0      ;
32128   27.29   0.0      ;
32129   28.11   7.197568325680118      ;
32178   15.3   0.0      ;
32179   15.3   0.0      ;
32244   11.11   0.0      ;
32245   11.21   0.0      ;
32275   11.9   0.0      ;
32276   14.91   0.0      ;
32351   27.17   0.0      ;
32352   33.54   0.0      ;
32353   24.01   0.0      ;
32354   24.0   0.0      ;
32414   8.95   0.0      ;
32415   9.57   0.0      ;
32420   7.47   0.0      ;
32421   13.16   0.0      ;
32502   31.81   0.0      ;
32503   30.66   0.0      ;
32563   10.04   0.0      ;
32641   7.11   0.0      ;
32672   31.63   0.0      ;
32673   27.17   4.8345815801540555      ;
32690   19.6   12.128918044603788      ;
32691   15.67   0.0      ;
32698   8.85   0.0      ;
32753   15.43   0.0      ;
32832   12.78   0.0      ;
32881   8.61   1.3699267722213135      ;
32882   7.82   0.0      ;
32979   22.37   0.0      ;
32980   24.68   2.8160426290192775      ;
32983   23.67   0.0      ;
32984   18.54   2.384002369002294      ;
32985   28.75   2.83304961102754      ;
33073   8.88   0.0      ;
33077   15.51   0.0      ;
33088   17.91   0.0      ;
33089   12.88   0.0      ;
33145   14.18   0.0      ;
33146   13.87   0.0      ;
33460   10.24   0.0      ;
33461   11.34   0.0      ;
33508   14.12   4.115463098842515      ;
33581   13.7   0.0      ;
33582   14.38   0.0      ;
33654   15.75   0.0      ;
33655   15.79   0.0      ;
33846   14.05   0.0      ;
33868   24.56   0.0      ;
33877   13.74   5.4076565687786715      ;
33878   12.02   0.0      ;
33886   22.09   0.0      ;
33978   17.94   5.85080705390855      ;
33979   15.54   5.789771692557184      ;
34010   9.55   3.5420798187089435      ;
34011   7.79   0.0      ;
34038   22.86   0.0      ;
34048   24.96   5.415617138193765      ;
34076   26.0   0.0      ;
34181   31.01   0.0      ;
34182   32.16   6.841346814240287      ;
34199   30.83   0.0      ;
34200   30.95   3.144483305975626      ;
34314   31.12   0.0      ;
34315   31.25   6.092971091787856      ;
34332   13.18   0.0      ;
34371   26.09   9.695179744741889      ;
34372   25.63   0.0      ;
34447   31.12   0.0      ;
34448   29.55   0.0      ;
34594   10.79   0.0      ;
34595   10.01   0.0      ;
34653   16.33   0.0      ;
34654   17.3   2.381326753673481      ;
34671   7.3   0.0      ;
34761   10.21   0.0      ;
34762   10.05   0.0      ;
34774   13.82   0.0      ;
34775   9.56   0.0      ;
34811   34.2   4.790123227607941      ;
34988   11.36   0.0      ;
34989   11.04   3.458655536778571      ;
35208   10.07   0.0      ;
35258   17.9   0.0      ;
35264   15.15   0.0      ;
35273   11.93   0.0      ;
35274   13.15   0.0      ;
35354   11.47   0.0      ;
35367   20.75   0.0      ;
35396   26.14   0.0      ;
35397   26.14   0.0      ;
35435   11.55   0.0      ;
35436   12.4   0.0      ;
35519   15.15   0.0      ;
35592   19.59   0.0      ;
35602   7.31   0.0      ;
35603   7.3   0.0      ;
35623   17.5   0.0      ;
35651   19.67   1.9701926535990042      ;
35652   20.47   3.3988545645542434      ;
35656   10.42   0.0      ;
35731   11.62   0.0      ;
35732   10.88   2.8882112161521993      ;
35786   12.34   0.0      ;
35787   13.2   0.0      ;
35961   7.78   0.0      ;
35966   23.23   0.0      ;
36067   8.35   0.0      ;
36068   8.27   0.0      ;
36219   21.25   0.0      ;
36236   13.5   4.662740345434653      ;
36354   13.63   5.6279298803116165      ;
36355   15.66   0.0      ;
36398   12.41   0.0      ;
36734   14.07   0.0      ;
36735   12.61   0.0      ;
36850   10.81   0.0      ;
37020   9.93   0.0      ;
37021   10.48   0.0      ;
37075   15.68   0.0      ;
37076   18.19   0.0      ;
37176   16.36   0.0      ;
37277   14.83   17.755021233116505      ;
37338   10.88   0.20694220677862427      ;
37339   11.02   0.0      ;
37373   12.71   0.0      ;
37435   20.7   0.0      ;
37438   12.47   0.0      ;
37497   32.51   0.0      ;
37539   22.29   0.0      ;
37540   23.13   4.412297285258839      ;
37552   23.02   6.194449165306593      ;
37553   23.98   0.0      ;
37636   30.97   0.0      ;
37637   30.81   7.3472728004201935      ;
37652   14.83   0.0      ;
37896   31.72   0.0      ;
37897   28.78   0.0      ;
38047   13.08   0.0      ;
38140   25.54   0.0      ;
38154   12.02   4.092083551833905      ;
38155   12.17   0.0      ;
38156   23.39   0.0      ;
38157   23.54   0.0      ;
38272   21.88   0.0      ;
38281   9.52   0.0      ;
38282   12.17   0.0      ;
38306   13.3   0.0      ;
38307   12.95   0.0      ;
38308   17.61   0.0      ;
38334   12.7   0.0      ;
38335   11.92   0.0      ;
38459   30.42   0.0      ;
38513   6.85   0.0      ;
38514   6.85   0.0      ;
38535   9.46   0.0      ;
38536   9.46   0.0      ;
38563   3.44   0.0      ;
38610   9.99   0.0      ;
38611   9.99   0.0      ;
38619   15.12   0.0      ;
38718   12.72   0.0      ;
38760   12.76   0.0      ;
38761   12.92   0.0      ;
38762   8.87   0.0      ;
38853   17.24   0.0      ;
38854   15.75   0.0      ;
38892   11.03   0.0      ;