[JUNCTIONS]
;ID   Elev   Demand   Pattern  
77721   8.51   0.0     ;
74134   8.51   0.0      ;
74135   8.51   0.0      ;
180683   11.63   0.0      ;
180684   10.89   0.0      ;
180685   10.16   0.0      ;
180686   10.0   0.0      ;
180687   9.74   0.0      ;
180688   10.2   0.0      ;
180689   10.58   0.0      ;
180690   10.75   0.0      ;
180691   10.36   0.0      ;
180692   10.53   0.0      ;
180693   8.51   0.0      ;
180694   9.85   0.0      ;
180695   11.44   0.0      ;
180696   11.2   0.0      ;
180697   9.8   0.0      ;
180698   11.73   0.0      ;
180699   11.13   0.0      ;
180700   10.86   0.0      ;
180701   11.19   0.0      ;
180702   11.5   0.0      ;
180703   11.12   0.0      ;
180704   10.7   0.0      ;
180705   11.5   0.0      ;
180706   11.27   0.0      ;
180707   11.36   0.0      ;
180708   10.83   0.0      ;
180709   10.81   0.0      ;
180710   11.0   0.0      ;
180711   11.29   0.0      ;
180712   11.13   0.0      ;
180713   10.87   0.0      ;
180714   11.13   0.0      ;
180715   12.18   0.0      ;
180912   11.67   0.0      ;
180913   11.83   0.0      ;
180914   9.66   0.0      ;
180915   10.11   0.0      ;
180916   10.3   0.0      ;
180917   11.98   0.0      ;
180918   7.69   0.0      ;
180919   11.18   0.0      ;
180920   10.37   0.0      ;
180921   10.1   0.0      ;
180922   10.08   0.0      ;
180923   9.92   0.0      ;
180924   10.19   0.0      ;
180925   10.8   0.0      ;
180926   11.38   0.0      ;
180927   11.94   0.0      ;
180928   11.6   0.0      ;
180929   11.47   0.0      ;
180930   10.89   0.0      ;
180931   11.63   0.0      ;
180932   12.38   0.0      ;
180933   11.43   0.0      ;
180934   11.33   0.0      ;
180935   11.68   0.0      ;
180936   12.08   0.0      ;
180937   10.24   0.0      ;
180938   11.23   0.0      ;
180939   10.52   0.0      ;
180940   11.14   0.0      ;
180941   11.31   0.0      ;
180942   11.89   0.0      ;
180943   11.98   0.0      ;
180944   11.82   0.0      ;
180945   12.68   0.0      ;
180946   12.14   0.0      ;
180947   11.84   0.0      ;
180948   11.53   0.0      ;
180949   11.48   0.0      ;
180950   9.7   0.0      ;
180951   9.47   0.0      ;
180952   10.14   0.0      ;
180953   10.55   0.0      ;
180954   9.14   0.0      ;
180955   8.35   37.8137900161      ;
180956   10.76   0.0      ;
180957   12.22   0.0      ;
180958   11.81   0.0      ;
180959   8.73   40.6504933011      ;
180960   8.58   0.0      ;
180961   9.22   0.0      ;
180962   11.14   0.0      ;
180963   11.24   0.0      ;
180964   11.76   0.0      ;
180967   11.92   0.0      ;
180968   12.18   0.0      ;
180969   12.01   0.0      ;
180970   12.01   0.0      ;
180971   11.64   0.0      ;
180972   11.33   0.0      ;
180973   10.83   248.34534419599999      ;
180974   11.24   0.0      ;
180975   12.13   0.0      ;
180976   11.55   0.0      ;
180977   12.36   0.0      ;
181010   9.95   0.0      ;
181011   8.75   0.0      ;
181012   10.01   0.0      ;
181013   12.64   0.0      ;
181014   12.37   0.0      ;
181015   12.48   0.0      ;
181016   13.09   0.0      ;
181017   12.55   0.0      ;
181018   12.44   0.0      ;
181019   12.06   0.0      ;
181020   13.36   0.0      ;
181021   10.77   0.0      ;
181032   11.66   0.0      ;
181033   9.96   0.0      ;
181034   12.1   0.0      ;
181035   9.47   0.0      ;
181036   9.03   0.0      ;
181087   9.48   0.0      ;
181088   11.55   0.0      ;
181089   11.0   0.0      ;
181090   11.29   0.0      ;
181091   11.96   0.0      ;
181092   9.33   0.0      ;
181093   8.85   0.0      ;
181094   8.51   0.0      ;
181095   9.66   0.0      ;
181096   10.16   0.0      ;
181097   10.26   0.0      ;
181098   8.13   0.0      ;
181099   8.7   0.0      ;
181100   12.08   0.0      ;
181101   11.36   0.0      ;
181102   10.54   0.0      ;
181103   11.11   0.0      ;
181104   10.02   0.0      ;
181105   10.27   0.0      ;
181106   11.96   0.0      ;
181107   11.43   0.0      ;
181108   12.61   0.0      ;
181109   9.11   0.0      ;
181110   11.23   0.0      ;
181111   11.12   0.0      ;
181112   10.78   0.0      ;
181113   9.09   0.0      ;
181114   9.76   0.0      ;
181115   8.99   0.0      ;
181119   9.95   0.0      ;
181120   9.72   0.0      ;
181121   8.4   0.0      ;
181122   12.28   0.0      ;
181123   8.86   0.0      ;
181124   7.62   0.0      ;
181125   8.45   0.0      ;
181126   7.37   0.0      ;
181127   7.3   0.0      ;
181128   7.86   0.0      ;
181129   8.2   0.0      ;
181130   7.77   0.0      ;
181131   8.62   0.0      ;
181132   8.68   0.0      ;
181133   8.12   0.0      ;
181134   7.57   0.0      ;
181135   8.58   0.0      ;
181136   9.4   0.0      ;
181137   9.8   0.0      ;
181138   9.84   0.0      ;
181139   9.81   0.0      ;
181140   9.84   0.0      ;
181141   8.08   0.0      ;
181142   8.94   0.0      ;
181143   7.75   0.0      ;
181144   7.86   0.0      ;
181145   7.15   0.0      ;
181146   7.84   0.0      ;
181147   10.76   0.0      ;
181148   12.01   0.0      ;
181149   11.66   0.0      ;
181150   12.28   0.0      ;
181151   11.8   0.0      ;
181152   12.29   0.0      ;
181153   11.56   0.0      ;
181154   10.83   0.0      ;
181155   11.35   0.0      ;
181156   11.75   0.0      ;
181157   11.76   0.0      ;
181158   11.0   0.0      ;
181159   10.52   0.0      ;
181160   10.85   0.0      ;
181161   10.72   0.0      ;
181162   12.29   0.0      ;
181163   8.17   0.0      ;
181164   8.54   0.0      ;
181165   10.12   0.0      ;
181166   11.26   0.0      ;
181167   9.92   0.0      ;
181168   11.57   0.0      ;
181169   10.08   0.0      ;
181170   12.12   0.0      ;
181171   12.25   0.0      ;
181172   13.02   0.0      ;
181173   10.82   0.0      ;
181174   8.57   0.0      ;
181182   11.93   0.0      ;
181183   11.44   0.0      ;
181184   11.95   0.0      ;
181185   10.47   0.0      ;
181186   11.68   0.0      ;
181187   11.28   0.0      ;
181188   11.76   0.0      ;
181189   11.08   0.0      ;
181190   12.28   0.0      ;
181191   10.46   0.0      ;
181192   10.02   0.0      ;
181193   11.71   0.0      ;
181194   10.96   0.0      ;
181195   11.66   0.0      ;
181196   11.46   0.0      ;
181197   11.74   0.0      ;
181198   10.75   0.0      ;
181199   10.02   0.0      ;
181200   9.95   0.0      ;
181201   9.56   0.0      ;
181202   7.71   0.0      ;
181203   7.69   0.0      ;
181204   6.93   0.0      ;
181205   8.14   0.0      ;
181206   9.24   0.0      ;
181207   8.54   0.0      ;
181208   7.22   0.0      ;
181209   9.56   0.0      ;
181210   8.73   0.0      ;
181211   9.32   0.0      ;
181212   9.3   0.0      ;
181213   9.24   0.0      ;
181214   9.81   0.0      ;
181215   8.46   0.0      ;
181216   8.29   0.0      ;
181217   9.14   0.0      ;
181218   8.41   0.0      ;
181219   6.75   0.0      ;
181220   7.59   0.0      ;
181221   7.21   0.0      ;
181222   8.79   0.0      ;
181223   7.01   0.0      ;
181224   6.82   0.0      ;
181225   8.48   0.0      ;
181226   7.05   0.0      ;
181227   7.71   0.0      ;
181228   8.81   0.0      ;
181229   8.62   0.0      ;
181230   7.69   0.0      ;
181231   9.23   0.0      ;
181232   8.87   0.0      ;
181233   7.69   0.0      ;
181234   8.32   0.0      ;
181235   7.38   0.0      ;
181236   7.75   0.0      ;
181237   9.83   0.0      ;
181238   7.79   0.0      ;
181239   10.68   0.0      ;
181240   11.01   0.0      ;
181244   9.6   0.0      ;
181245   11.19   0.0      ;
181246   10.92   0.0      ;
181247   10.54   0.0      ;
181248   12.22   0.0      ;
181257   10.6   0.0      ;
181258   9.64   0.0      ;
181259   11.97   0.0      ;
181260   11.49   0.0      ;
181261   8.12   0.0      ;
181262   11.14   0.0      ;
181263   11.1   0.0      ;
181264   11.61   0.0      ;
181282   11.48   0.0      ;
181283   8.56   0.0      ;
181284   9.77   0.0      ;
181285   9.29   0.0      ;
181286   11.72   0.0      ;
181287   11.83   0.0      ;
181288   7.99   0.0      ;
181289   11.22   0.0      ;
181290   8.46   0.0      ;
181291   12.33   0.0      ;
181292   11.58   0.0      ;
181293   8.3   0.0      ;
181294   8.47   0.0      ;
181295   12.19   0.0      ;
181296   10.83   0.0      ;
181297   10.41   0.0      ;
181298   7.39   0.0      ;
181299   7.4   0.0      ;
181300   7.23   0.0      ;
181301   11.09   0.0      ;
181302   10.73   0.0      ;
181303   10.73   0.0      ;
181304   12.01   0.0      ;
181306   10.87   0.0      ;
181313   8.59   0.0      ;
181314   9.05   0.0      ;
181315   9.51   0.0      ;
181316   8.35   0.0      ;
181317   13.12   0.0      ;
181318   8.44   0.0      ;
181319   9.1   0.0      ;
181320   9.08   0.0      ;
181321   10.53   0.0      ;
181322   11.94   0.0      ;
181323   12.53   0.0      ;
181324   8.98   0.0      ;
181330   12.44   0.0      ;
181331   9.73   0.0      ;
181338   11.47   0.0      ;
181339   7.1   0.0      ;
181340   7.41   0.0      ;
181341   11.75   0.0      ;
181342   8.12   0.0      ;
181343   13.4   0.0      ;
181344   12.67   0.0      ;
181345   9.36   0.0      ;
181346   9.59   0.0      ;
181347   7.29   0.0      ;
181348   10.86   0.0      ;
181349   11.85   0.0      ;
181350   8.81   0.0      ;
181353   10.79   0.0      ;
181363   9.9   0.0      ;
181364   9.91   0.0      ;
181365   11.22   0.0      ;
181366   12.33   0.0      ;
181367   9.36   0.0      ;
181368   8.31   0.0      ;
181369   8.48   0.0      ;
181370   8.58   0.0      ;
181371   10.59   0.0      ;
181372   9.98   0.0      ;
181373   10.37   0.0      ;
181379   8.91   0.0      ;
181380   12.13   0.0      ;
181381   8.87   0.0      ;
181382   12.29   0.0      ;
181387   10.86   0.0      ;
181388   11.77   0.0      ;
181389   8.39   0.0      ;
181390   7.64   0.0      ;
181391   7.27   0.0      ;
181392   10.58   0.0      ;
181393   11.25   0.0      ;
181394   11.47   0.0      ;
181395   12.1   0.0      ;
181396   7.27   0.0      ;
181397   9.81   0.0      ;
181399   10   0.0      ;

[RESERVOIRS]
;ID   Head   Pattern  
77721   8.51   0.0     ;

[PIPES]
;ID   Node1   Node2   Length   Diameter   Roughness   Minorloss   Status   
PIPE-89397   74135   77721   81.44011309245245   12.0   130   0   Open   ;
PIPE-192670   180683   180684   47.634403023901186   8.0   130   0   Open   ;
PIPE-192671   180685   180686   45.4633015855513   8.0   130   0   Open   ;
PIPE-192672   180686   180687   116.6638235671858   8.0   130   0   Open   ;
PIPE-192673   180687   180688   93.48809334462206   8.0   130   0   Open   ;
PIPE-192674   180688   180689   61.82033069760434   8.0   130   0   Open   ;
PIPE-192675   180683   180690   36.923413597083545   12.0   130   0   Open   ;
PIPE-192676   180684   180691   297.37064105167195   12.0   130   0   Open   ;
PIPE-192677   180691   180692   231.4731253194616   8.0   130   0   Open   ;
PIPE-192679   180693   180694   128.78884205851722   8.0   130   0   Open   ;
PIPE-192680   180694   180695   209.42181419052216   8.0   130   0   Open   ;
PIPE-192681   180695   180696   319.536298242803   12.0   130   0   Open   ;
PIPE-192682   180697   180698   242.93032917098407   8.0   130   0   Open   ;
PIPE-192683   180699   180698   45.126617444312686   8.0   130   0   Open   ;
PIPE-192684   180698   180696   203.00272249574473   8.0   130   0   Open   ;
PIPE-192685   180696   180700   43.59437377760753   8.0   130   0   Open   ;
PIPE-192686   180700   180701   91.1043921335045   8.0   130   0   Open   ;
PIPE-192687   180701   180702   256.90053273793336   8.0   130   0   Open   ;
PIPE-192688   180700   180703   303.12802440197146   8.0   130   0   Open   ;
PIPE-192689   180703   180704   40.727349195302466   8.0   130   0   Open   ;
PIPE-192690   180705   180706   37.201938753001286   8.0   130   0   Open   ;
PIPE-192691   180707   180702   290.0628114026516   8.0   130   0   Open   ;
PIPE-192692   180689   180708   169.43486310814873   8.0   130   0   Open   ;
PIPE-192693   180709   180708   37.08053158705246   8.0   130   0   Open   ;
PIPE-192694   180710   180709   173.23017804235778   8.0   130   0   Open   ;
PIPE-192695   180710   180711   132.24030158720242   8.0   130   0   Open   ;
PIPE-192696   180711   180699   183.85142351464881   8.0   130   0   Open   ;
PIPE-192697   180699   180712   7.621263994805965   8.0   130   0   Open   ;
PIPE-192698   180713   180714   19.04960767650073   8.0   130   0   Open   ;
PIPE-192699   180692   180707   40.06390108776165   8.0   130   0   Open   ;
PIPE-192700   180684   180685   256.3588405990605   8.0   130   0   Open   ;
PIPE-192701   180715   180705   73.6978008156271   8.0   130   0   Open   ;
PIPE-193060   180912   180913   709.3679124613983   4.0   130   0   Open   ;
PIPE-193061   180914   180915   123.44771185921444   8.0   130   0   Open   ;
PIPE-193062   180916   180713   305.0742580670626   8.0   130   0   Open   ;
PIPE-193063   180917   180918   499.68984457598566   8.0   130   0   Open   ;
PIPE-193064   180919   180920   81.10726587541204   4.0   130   0   Open   ;
PIPE-193065   180921   180922   207.5060703238099   4.0   130   0   Open   ;
PIPE-193066   180923   180924   288.13851490601564   8.0   130   0   Open   ;
PIPE-193070   180925   180926   130.23866625800085   8.0   130   0   Open   ;
PIPE-193071   180927   180692   320.47587779689763   6.0   130   0   Open   ;
PIPE-193072   180928   180929   119.22734360131271   4.0   130   0   Open   ;
PIPE-193073   180930   180920   135.25790698536426   4.0   130   0   Open   ;
PIPE-193074   180917   180931   45.65566312138596   6.0   130   0   Open   ;
PIPE-193075   180912   180932   42.51432027676461   4.0   130   0   Open   ;
PIPE-193076   180710   180933   36.79955018400486   4.0   130   0   Open   ;
PIPE-193077   180933   180934   39.116527121297935   4.0   130   0   Open   ;
PIPE-193078   180708   180935   37.2358522977938   4.0   130   0   Open   ;
PIPE-193079   180935   180936   30.29698958200601   4.0   130   0   Open   ;
PIPE-193080   180687   180937   57.54539383403637   4.0   130   0   Open   ;
PIPE-193081   180685   180938   40.62646935861481   4.0   130   0   Open   ;
PIPE-193082   180925   180939   65.83501261970693   4.0   130   0   Open   ;
PIPE-193083   180926   180940   171.6702577414019   4.0   130   0   Open   ;
PIPE-193084   180941   180942   130.30936731372267   4.0   130   0   Open   ;
PIPE-193085   180943   180944   76.03554789108233   8.0   130   0   Open   ;
PIPE-193086   180945   180946   60.68598816709297   4.0   130   0   Open   ;
PIPE-193087   180945   180947   149.5701943980884   4.0   130   0   Open   ;
PIPE-193088   180943   180948   128.57955983439533   4.0   130   0   Open   ;
PIPE-193089   180949   180950   256.8578430582024   8.0   130   0   Open   ;
PIPE-193090   180951   180952   158.05984617305984   4.0   130   0   Open   ;
PIPE-193091   180949   180953   247.33441928678602   4.0   130   0   Open   ;
PIPE-193092   180950   180954   647.5192299740145   8.0   130   0   Open   ;
PIPE-193093   180955   74134   324.1242450322453   4.0   130   0   Open   ;
PIPE-193095   180955   180956   252.83985116357925   4.0   130   0   Open   ;
PIPE-193096   180957   180958   450.7502805898727   4.0   130   0   Open   ;
PIPE-193097   180959   180960   32.369215433468746   4.0   130   0   Open   ;
PIPE-193098   180961   180962   383.47544408397255   4.0   130   0   Open   ;
PIPE-193099   180963   180964   418.72556251234613   4.0   130   0   Open   ;
PIPE-193101   180967   180968   43.22306256314604   4.0   130   0   Open   ;
PIPE-193103   180971   180972   680.8046588811798   4.0   130   0   Open   ;
PIPE-193104   180973   180974   532.4809073569273   4.0   130   0   Open   ;
PIPE-193105   180975   180976   516.7861514613303   12.0   130   0   Open   ;
PIPE-193125   181010   181011   465.1663237254612   8.0   130   0   Open   ;
PIPE-193126   180918   181012   342.69817077195273   4.0   130   0   Open   ;
PIPE-193127   180915   181012   125.92201332044287   8.0   130   0   Open   ;
PIPE-193128   181013   181014   201.36540471507882   4.0   130   0   Open   ;
PIPE-193129   181013   181015   94.95496670508244   4.0   130   0   Open   ;
PIPE-193130   181016   181017   61.034058874850025   4.0   130   0   Open   ;
PIPE-193131   181018   181019   107.51205475698893   4.0   130   0   Open   ;
PIPE-193132   180958   181020   129.8801603122125   4.0   130   0   Open   ;
PIPE-193133   180957   181021   183.12732168867856   4.0   130   0   Open   ;
PIPE-193142   181032   181033   274.9249494662632   4.0   130   0   Open   ;
PIPE-193143   181032   181034   324.3141947927195   4.0   130   0   Open   ;
PIPE-193144   181035   181036   2028.364615431516   12.0   130   0   Open   ;
PIPE-193180   181087   181035   337.95671730160063   12.0   130   0   Open   ;
PIPE-193181   181088   181089   367.1482966404009   12.0   130   0   Open   ;
PIPE-193182   181090   181091   364.1172492496431   12.0   130   0   Open   ;
PIPE-193183   181092   181093   166.9160543195385   8.0   130   0   Open   ;
PIPE-193184   181094   181095   577.8885582010597   8.0   130   0   Open   ;
PIPE-193185   181096   181097   216.84333908524846   12.0   130   0   Open   ;
PIPE-193186   181098   181099   277.683371556324   12.0   130   0   Open   ;
PIPE-193187   181100   181101   365.152707982382   12.0   130   0   Open   ;
PIPE-193188   181102   181103   461.9705317649637   12.0   130   0   Open   ;
PIPE-193189   181104   181105   189.95570872320286   4.0   130   0   Open   ;
PIPE-193190   181106   181107   353.45154457382154   12.0   130   0   Open   ;
PIPE-193191   181108   181109   283.08044058222856   12.0   130   0   Open   ;
PIPE-193192   181110   181111   410.19427361948163   12.0   130   0   Open   ;
PIPE-193193   181112   181113   403.74165490427856   4.0   130   0   Open   ;
PIPE-193194   181113   181114   377.05117071883035   4.0   130   0   Open   ;
PIPE-193195   181112   181115   342.42080932828543   4.0   130   0   Open   ;
PIPE-193199   181119   181112   119.46819303995932   4.0   130   0   Open   ;
PIPE-193200   181120   181121   444.8289557670653   8.0   130   0   Open   ;
PIPE-193201   181122   181123   214.05775472541345   12.0   130   0   Open   ;
PIPE-193202   181124   181125   204.29605324064468   12.0   130   0   Open   ;
PIPE-193203   181126   181127   321.91598706809367   12.0   130   0   Open   ;
PIPE-193204   181128   181129   281.0596445851818   12.0   130   0   Open   ;
PIPE-193205   181127   181130   415.1391132450456   12.0   130   0   Open   ;
PIPE-193206   181131   181132   123.65322175057359   4.0   130   0   Open   ;
PIPE-193207   181133   181134   198.69405984903386   4.0   130   0   Open   ;
PIPE-193208   181135   181136   312.105349386246   4.0   130   0   Open   ;
PIPE-193209   181136   181137   281.41679335647325   4.0   130   0   Open   ;
PIPE-193210   181138   181139   408.748591523767   4.0   130   0   Open   ;
PIPE-193211   181138   181140   134.46934652693858   4.0   130   0   Open   ;
PIPE-193212   181141   181142   2711.760319721479   4.0   130   0   Open   ;
PIPE-193213   181141   181143   251.1991997900597   4.0   130   0   Open   ;
PIPE-193214   181143   181144   574.9724903352565   4.0   130   0   Open   ;
PIPE-193215   181145   181146   298.8046778817453   12.0   130   0   Open   ;
PIPE-193216   181147   181148   423.4033464339715   4.0   130   0   Open   ;
PIPE-193217   181149   181150   421.22038495735336   12.0   130   0   Open   ;
PIPE-193218   181151   181152   1086.3857457350318   12.0   130   0   Open   ;
PIPE-193219   181153   181154   330.7928365890263   4.0   130   0   Open   ;
PIPE-193220   181155   181036   552.9408927783169   12.0   130   0   Open   ;
PIPE-193221   181156   181157   234.50994050051327   12.0   130   0   Open   ;
PIPE-193222   181158   181159   406.34908796133504   12.0   130   0   Open   ;
PIPE-193223   181160   181161   440.194267427322   4.0   130   0   Open   ;
PIPE-193224   181162   180683   385.93486577532445   8.0   130   0   Open   ;
PIPE-193225   181163   181164   193.2773472169086   12.0   130   0   Open   ;
PIPE-193226   181163   181165   836.7023878991844   8.0   130   0   Open   ;
PIPE-193227   181166   181148   371.9768109776157   12.0   130   0   Open   ;
PIPE-193228   181165   181167   66.9068879039658   4.0   130   0   Open   ;
PIPE-193229   180683   181168   371.12759127228895   12.0   130   0   Open   ;
PIPE-193230   181169   181170   469.2265638562037   12.0   130   0   Open   ;
PIPE-193231   181171   181172   259.740752769859   12.0   130   0   Open   ;
PIPE-193232   181173   181174   1305.8676159835836   6.0   130   0   Open   ;
PIPE-193239   181145   181098   1325.7423591026652   6.0   130   0   Open   ;
PIPE-193240   181170   181182   426.0279747697879   12.0   130   0   Open   ;
PIPE-193241   181183   181184   283.9676808139186   12.0   130   0   Open   ;
PIPE-193242   181185   181186   310.69382828841   4.0   130   0   Open   ;
PIPE-193243   181187   181188   363.85570268627373   16.0   130   0   Open   ;
PIPE-193244   181189   181190   200.7214132008727   8.0   130   0   Open   ;
PIPE-193245   181191   181192   214.71617264360185   4.0   130   0   Open   ;
PIPE-193246   181193   181194   415.7035479139937   4.0   130   0   Open   ;
PIPE-193247   180715   181016   168.4045743730848   4.0   130   0   Open   ;
PIPE-193248   181195   181196   429.9807811599741   12.0   130   0   Open   ;
PIPE-193249   180941   181197   137.88975788705937   4.0   130   0   Open   ;
PIPE-193250   180706   181198   293.75354861831767   4.0   130   0   Open   ;
PIPE-193251   181011   181199   141.2323033548804   4.0   130   0   Open   ;
PIPE-193252   181200   181201   205.76123777817452   4.0   130   0   Open   ;
PIPE-193253   181202   181203   83.06543926315658   4.0   130   0   Open   ;
PIPE-193254   181203   181204   206.84040815052398   4.0   130   0   Open   ;
PIPE-193255   181205   181206   192.48122998496657   8.0   130   0   Open   ;
PIPE-193256   181207   181208   311.904422404007   12.0   130   0   Open   ;
PIPE-193257   181209   181210   185.7884153643157   8.0   130   0   Open   ;
PIPE-193258   181211   181212   281.5192995573003   8.0   130   0   Open   ;
PIPE-193259   181213   181214   89.36671202430006   4.0   130   0   Open   ;
PIPE-193260   181215   181216   294.8307800153056   8.0   130   0   Open   ;
PIPE-193261   181217   181218   298.04559936827735   8.0   130   0   Open   ;
PIPE-193262   181219   181220   170.4296078614859   8.0   130   0   Open   ;
PIPE-193263   181221   181222   155.5634624652979   8.0   130   0   Open   ;
PIPE-193264   181219   181223   208.66009377061783   8.0   130   0   Open   ;
PIPE-193265   181224   181225   105.49193335582501   8.0   130   0   Open   ;
PIPE-193266   181203   181226   126.0562656138807   8.0   130   0   Open   ;
PIPE-193267   181227   181203   154.32973870727483   4.0   130   0   Open   ;
PIPE-193268   181200   181228   126.73322377700998   4.0   130   0   Open   ;
PIPE-193269   181229   181230   154.24631880618   4.0   130   0   Open   ;
PIPE-193270   181231   181232   483.75809781148763   4.0   130   0   Open   ;
PIPE-193271   181233   181234   150.1058202768219   4.0   130   0   Open   ;
PIPE-193272   181222   180918   60.80710610029169   8.0   130   0   Open   ;
PIPE-193273   181234   181231   87.26738489703754   4.0   130   0   Open   ;
PIPE-193274   181235   181230   35.536193080466106   4.0   130   0   Open   ;
PIPE-193275   181229   181236   115.9658024979416   4.0   130   0   Open   ;
PIPE-193276   181129   181237   345.70194915198573   4.0   130   0   Open   ;
PIPE-193277   181238   181239   450.9321055359883   4.0   130   0   Open   ;
PIPE-193278   181223   181224   204.27952003346246   8.0   130   0   Open   ;
PIPE-193279   180944   181240   138.05578611258042   8.0   130   0   Open   ;
PIPE-193280   180714   180947   74.34698840768917   8.0   130   0   Open   ;
PIPE-193284   180690   181244   389.2691606101704   12.0   130   0   Open   ;
PIPE-193285   181245   181246   418.12332783218375   12.0   130   0   Open   ;
PIPE-193286   180950   180951   40.874999654059245   4.0   130   0   Open   ;
PIPE-193287   181033   181247   88.16880092058727   12.0   130   0   Open   ;
PIPE-193288   181248   181190   516.3909936916406   12.0   130   0   Open   ;
PIPE-193298   181257   181102   315.44093065554176   12.0   130   0   Open   ;
PIPE-193299   181258   181257   188.978575801018   12.0   130   0   Open   ;
PIPE-193300   181259   180928   108.67005420877372   8.0   130   0   Open   ;
PIPE-193301   180928   181260   54.58104834697673   8.0   130   0   Open   ;
PIPE-193302   180960   181261   159.43538394393875   4.0   130   0   Open   ;
PIPE-193303   181261   180955   159.26168394920236   4.0   130   0   Open   ;
PIPE-193304   181262   181263   426.7483152263227   4.0   130   0   Open   ;
PIPE-193305   180972   181264   90.2185226471521   4.0   130   0   Open   ;
PIPE-193306   180975   180972   91.17826821999613   4.0   130   0   Open   ;
PIPE-193325   181247   181087   207.5003465052456   12.0   130   0   Open   ;
PIPE-193326   181282   181095   270.6870146810069   12.0   130   0   Open   ;
PIPE-193327   181283   181284   221.42269696731515   8.0   130   0   Open   ;
PIPE-193328   181157   181111   54.66651588729261   12.0   130   0   Open   ;
PIPE-193329   181285   181120   62.973876231026956   8.0   130   0   Open   ;
PIPE-193330   181286   181287   335.3675541342343   12.0   130   0   Open   ;
PIPE-193331   181131   181288   353.58095408917546   12.0   130   0   Open   ;
PIPE-193332   181289   181287   238.2109101059138   12.0   130   0   Open   ;
PIPE-193333   181135   181290   426.15064235519446   12.0   130   0   Open   ;
PIPE-193334   181127   181141   95.18371287130518   4.0   130   0   Open   ;
PIPE-193335   181150   181291   69.81721698306673   12.0   130   0   Open   ;
PIPE-193336   181292   181159   143.9132820144961   12.0   130   0   Open   ;
PIPE-193337   181208   181225   92.62322524966162   12.0   130   0   Open   ;
PIPE-193338   181293   181294   370.42368114937017   12.0   130   0   Open   ;
PIPE-193339   181162   181295   30.778838291237463   12.0   130   0   Open   ;
PIPE-193340   181194   181296   179.22571983246198   4.0   130   0   Open   ;
PIPE-193341   181260   180941   76.08200448649983   4.0   130   0   Open   ;
PIPE-193342   181297   180914   21.85511469157351   8.0   130   0   Open   ;
PIPE-193343   181298   181223   116.71511295723565   8.0   130   0   Open   ;
PIPE-193344   181201   181229   134.8785141748867   4.0   130   0   Open   ;
PIPE-193345   180918   181233   14.378071885109609   4.0   130   0   Open   ;
PIPE-193346   181299   181300   328.9067738759468   12.0   130   0   Open   ;
PIPE-193347   180689   181301   290.47710536692836   8.0   130   0   Open   ;
PIPE-193348   181302   181303   11.73652191962471   8.0   130   0   Open   ;
PIPE-193349   180944   180949   134.52444159201417   8.0   130   0   Open   ;
PIPE-193350   181304   180963   418.3293159975364   4.0   130   0   Open   ;
PIPE-193353   181248   180971   57.23660888164383   4.0   130   0   Open   ;
PIPE-193354   181012   181306   105.09041358568527   8.0   130   0   Open   ;
PIPE-193355   181306   181010   189.10920285097959   8.0   130   0   Open   ;
PIPE-193356   181018   181248   239.38189375747243   4.0   130   0   Open   ;
PIPE-193358   180964   181196   37.77566525176878   4.0   130   0   Open   ;
PIPE-193364   181120   181313   601.9252017795163   8.0   130   0   Open   ;
PIPE-193365   181284   181314   54.69933179587392   8.0   130   0   Open   ;
PIPE-193366   181300   181208   40.710785760726274   12.0   130   0   Open   ;
PIPE-193367   181136   181315   38.25685145693127   4.0   130   0   Open   ;
PIPE-193368   181316   181138   283.40456628397567   4.0   130   0   Open   ;
PIPE-193369   181317   181291   258.2724137421422   12.0   130   0   Open   ;
PIPE-193370   181036   181318   514.7898862833423   12.0   130   0   Open   ;
PIPE-193371   181319   181207   262.9506665669557   12.0   130   0   Open   ;
PIPE-193372   181244   181319   31.382608714034845   12.0   130   0   Open   ;
PIPE-193373   181320   181293   370.28079964788526   12.0   130   0   Open   ;
PIPE-193374   181147   181171   79.2996352153973   12.0   130   0   Open   ;
PIPE-193375   181147   181321   406.931959342944   12.0   130   0   Open   ;
PIPE-193376   181322   181191   211.42694322018002   8.0   130   0   Open   ;
PIPE-193377   181191   181189   75.21836829892402   8.0   130   0   Open   ;
PIPE-193378   180706   180703   25.318875036572642   8.0   130   0   Open   ;
PIPE-193379   181260   181323   129.55574923189042   8.0   130   0   Open   ;
PIPE-193380   180714   180712   7.7151010692524515   8.0   130   0   Open   ;
PIPE-193381   181010   180916   121.45496423019718   8.0   130   0   Open   ;
PIPE-193382   180960   181324   138.69653952253643   4.0   130   0   Open   ;
PIPE-193390   180715   181330   155.05116080481199   8.0   130   0   Open   ;
PIPE-193391   181016   181018   84.49490411751354   4.0   130   0   Open   ;
PIPE-193394   181089   181035   224.66241593951798   12.0   130   0   Open   ;
PIPE-193395   181035   181331   213.72846467403681   12.0   130   0   Open   ;
PIPE-193405   181338   181110   311.3814744985673   12.0   130   0   Open   ;
PIPE-193406   181101   181282   224.71439722803203   12.0   130   0   Open   ;
PIPE-193407   181093   181339   172.59516789560962   8.0   130   0   Open   ;
PIPE-193408   181340   181130   341.23839232981345   12.0   130   0   Open   ;
PIPE-193409   181341   181158   223.7348303228244   12.0   130   0   Open   ;
PIPE-193410   181289   181151   70.52671860768562   12.0   130   0   Open   ;
PIPE-193411   181291   181342   501.15969012440536   12.0   130   0   Open   ;
PIPE-193412   181343   181344   215.34252106649868   12.0   130   0   Open   ;
PIPE-193413   181288   181124   183.94142575888569   12.0   130   0   Open   ;
PIPE-193414   181345   181131   46.77371682901752   12.0   130   0   Open   ;
PIPE-193415   181346   181245   171.41493724123086   12.0   130   0   Open   ;
PIPE-193416   181172   181182   58.7592812671116   12.0   130   0   Open   ;
PIPE-193417   181127   181347   59.028894531442816   12.0   130   0   Open   ;
PIPE-193418   181295   181185   330.1983147862274   12.0   130   0   Open   ;