[JUNCTIONS]
;ID   Elev   Demand   Pattern  
28977   87.12   0.0      ;
28978   84.86   0.0      ;
28979   14.08   0.0      ;
28980   14.08   0.0      ;
28981   74.87   0.0      ;
28982   74.87   0.0      ;
28983   14.2   0.0      ;
28984   14.2   0.0      ;
28987   15.18   0.0      ;
28988   15.18   0.0      ;
28989   17.95   0.0      ;
28990   17.45   0.0      ;
28991   53.43   0.0      ;
28992   53.85   0.0      ;
28999   15.29   0.0      ;
29000   15.29   0.0      ;
29001   74.32   0.0      ;
29002   74.86   0.0      ;
29008   74.03   0.0      ;
29009   86.11   0.0      ;
29010   53.85   0.0      ;
29011   53.85   0.0      ;
29012   63.91   0.0      ;
29013   15.12   0.0      ;
29014   85.96   0.0      ;
29015   15.1   0.0      ;
29016   15.1   0.0      ;
29021   74.97   0.0      ;
29022   69.96   0.0      ;
29023   15.18   0.0      ;
29024   14.62   0.0      ;
29025   15.33   8.369678252976769      ;
29027   15.12   0.0      ;
29028   14.56   0.0      ;
29029   15.33   0.0      ;
29030   9.6   0.0      ;
29031   9.11   0.0      ;
29036   53.85   0.0      ;
29809   9.7   0.0      ;
29810   9.86   0.0      ;
32732   9.99   0.0      ;
32733   10.13   0.0      ;
41999   9.7   0.0      ;
52320   9.86   0.0      ;
52616   86.99   0.0      ;
52617   85.97   0.0      ;
52618   7.14   0.0      ;
52619   9.37   0.0      ;
52622   47.11   0.0      ;
52623   46.55   0.0      ;
52628   23.62   0.0      ;
52629   23.62   0.0      ;
52632   85.55   0.0      ;
52633   83.05   0.0      ;
52636   51.29   0.0      ;
52637   49.94   0.0      ;
52638   12.13   0.0      ;
52639   12.13   0.0      ;
52642   60.06   0.0      ;
52643   59.29   0.0      ;
52646   33.5   0.0      ;
52647   32.99   0.0      ;
52648   13.51   0.0      ;
52649   13.35   0.0      ;
52650   10.02   0.0      ;
52651   10.02   0.0      ;
52656   20.24   0.0      ;
52657   20.9   0.0      ;
52662   10.73   0.0      ;
52663   10.88   0.0      ;
52664   25.24   0.0      ;
52665   24.32   0.0      ;
52666   11.5   0.0      ;
52667   11.95   0.0      ;
52668   53.48   0.0      ;
52669   53.48   0.0      ;
52670   32.15   2.8373571247983844      ;
52671   32.86   0.0      ;
52678   11.59   0.0      ;
52679   11.25   0.0      ;
52684   20.46   0.0      ;
52685   23.13   0.0      ;
52688   38.03   0.0      ;
52689   38.18   0.0      ;
52692   52.4   0.0      ;
52693   52.4   0.0      ;
52698   19.03   0.0      ;
52699   19.03   0.0      ;
52702   50.75   0.0      ;
52703   54.38   0.0      ;
52706   43.63   0.0      ;
52707   41.17   0.0      ;
52708   40.79   0.0      ;
52709   43.76   0.0      ;
52710   11.81   0.0      ;
52711   12.24   3.4158125992080537      ;
52712   37.06   0.0      ;
52713   36.59   0.0      ;
52718   38.09   1.3248829051493565      ;
52719   38.09   0.0      ;
52720   13.31   0.0      ;
52721   13.31   0.0      ;
52722   30.51   0.0      ;
52723   29.25   0.0      ;
52728   13.76   18.82825065579933      ;
52729   11.57   0.0      ;
52737   31.42   0.0      ;
52738   30.65   0.0      ;
52739   27.62   0.0      ;
52740   27.12   0.0      ;
52741   37.17   0.0      ;
52742   37.02   0.0      ;
52743   27.17   0.0      ;
52744   27.04   0.0      ;
52745   31.75   5.345926356967071      ;
52746   29.64   0.0      ;
52751   35.0   0.0      ;
52752   35.77   0.0      ;
52755   34.09   0.0      ;
52756   35.93   0.0      ;
52759   60.64   0.0      ;
52760   55.82   0.0      ;
52761   68.54   7.641250034734718      ;
52762   67.45   0.0      ;
52767   19.81   0.0      ;
52768   19.81   0.0      ;
52771   11.94   0.0      ;
52772   11.9   0.0      ;
52773   93.33   0.0      ;
52775   19.28   0.0      ;
52776   18.97   0.0      ;
52777   23.78   0.0      ;
52778   23.84   0.0      ;
52781   49.92   0.0      ;
52782   53.7   0.0      ;
52785   67.45   0.0      ;
52786   67.45   0.0      ;
52787   11.47   1.0446780322032256      ;
52788   11.27   0.0      ;
52789   21.8   0.0      ;
52790   18.9   0.0      ;
52795   73.88   0.0      ;
52796   55.31   0.0      ;
52797   14.03   0.0      ;
52798   15.06   0.0      ;
52799   42.97   0.0      ;
52800   42.97   0.0      ;
52801   32.09   0.4224250922537134      ;
52802   31.72   0.0      ;
52803   53.54   0.0      ;
52804   53.54   0.0      ;
52811   43.15   9.039314172231887      ;
52812   52.58   0.0      ;
52813   10.93   0.0      ;
52814   12.63   0.0      ;
52817   21.47   0.0      ;
52818   21.47   0.0      ;
52830   17.37   0.0      ;
52831   16.4   0.0      ;
52840   60.65   3.7088397369090935      ;
52841   60.6   0.0      ;
52842   24.53   0.0      ;
52843   24.35   0.0      ;
52844   29.91   0.0      ;
52845   30.33   0.0      ;
52850   11.38   0.0      ;
52857   55.93   0.0      ;
52858   55.93   0.0      ;
52861   18.85   0.0      ;
52862   18.85   0.0      ;
52863   62.27   0.0      ;
52864   79.51   10.752328463877422      ;
52871   32.87   0.0      ;
52872   32.87   0.0      ;
52873   13.77   0.0      ;
52874   13.24   0.0      ;
52875   35.07   0.0      ;
52876   34.21   0.0      ;
52879   13.54   0.0      ;
52880   13.54   0.0      ;
52881   10.45   0.0      ;
52882   10.45   0.0      ;
52885   66.02   0.0      ;
52886   66.02   0.0      ;
52889   21.45   0.0      ;
52890   25.92   0.0      ;
52897   70.06   0.0      ;
52898   68.33   0.0      ;
52899   40.24   0.0      ;
52900   41.59   0.0      ;
52903   44.22   0.0      ;
52904   44.91   3.017436912924869      ;
52905   11.06   0.0      ;
52906   11.27   0.0      ;
52907   36.95   7.9377235432823525      ;
52908   35.96   0.0      ;
52913   13.77   0.0      ;
52914   13.98   0.5142743009799459      ;
52915   49.94   0.0      ;
52918   27.9   0.0      ;
52919   27.87   0.0      ;
52920   11.45   0.0      ;
52921   11.47   0.0      ;
52922   19.83   0.0      ;
52923   19.83   0.0      ;
52924   42.69   0.0      ;
52925   42.02   0.0      ;
52926   36.84   0.0      ;
52927   14.94   0.0      ;
52928   14.35   0.0      ;
52931   40.36   0.0      ;
52932   41.51   0.0      ;
52933   87.83   0.0      ;
52934   86.11   0.0      ;
52937   73.14   0.0      ;
52938   73.14   0.0      ;
52939   26.3   0.0      ;
52940   27.6   15.234711257377567      ;
52945   28.83   0.0      ;
52946   29.4   0.0      ;
52947   40.88   0.0      ;
52948   40.21   0.0      ;
52953   10.56   0.0      ;
52954   10.52   0.0      ;
52957   30.85   0.0      ;
52958   30.85   0.0      ;
52969   49.82   0.0      ;
52970   49.31   0.0      ;
52977   33.94   0.0      ;
52978   33.94   0.0      ;
52979   38.27   0.0      ;
52980   38.83   0.0      ;
52982   28.55   0.0      ;
52983   28.43   0.0      ;
52988   55.37   0.0      ;
52989   55.51   0.0      ;
52990   17.31   0.0      ;
52991   18.56   0.0      ;
52992   13.86   0.0      ;
52993   13.77   0.0      ;
52994   51.22   0.0      ;
52995   51.19   0.0      ;
52998   84.61   0.0      ;
52999   84.61   0.0      ;
53000   10.38   0.0      ;
53001   11.75   0.0      ;
53002   10.07   0.0      ;
53003   10.07   0.0      ;
53004   37.92   0.0      ;
53005   37.92   0.0      ;
53006   63.64   0.0      ;
53007   62.58   2.96816155884247      ;
53012   16.47   0.0      ;
53013   16.77   0.0      ;
53014   16.48   0.0      ;
53015   15.75   0.0      ;
53016   70.8   0.0      ;
53017   70.94   0.0      ;
53026   25.18   0.0      ;
53027   25.99   0.0      ;
53028   11.72   0.0      ;
53029   11.72   0.0      ;
53034   48.38   0.0      ;
53035   49.14   0.0      ;
53036   12.05   0.0      ;
53037   12.09   0.0      ;
53042   17.34   0.0      ;
53043   17.07   0.0      ;
53046   69.78   0.0      ;
53047   67.63   16.686657210392347      ;
53048   24.51   0.0      ;
53049   24.51   0.0      ;
53052   26.7   0.0      ;
53053   26.74   3.7073902968722185      ;
53058   24.23   5.799098595031348      ;
53059   25.41   0.0      ;
53064   43.25   0.0      ;
53065   43.25   0.0      ;
53068   65.06   6.250087762682174      ;
53069   60.18   0.0      ;
53071   13.81   0.0      ;
53078   19.22   0.0      ;
53079   19.22   0.0      ;
53084   32.06   0.0      ;
53085   30.21   0.0      ;
53088   12.3   0.0      ;
53089   13.09   0.0      ;
53096   17.28   0.0      ;
53097   17.24   0.0      ;
53098   38.87   0.0      ;
53099   34.7   0.0      ;
53100   54.55   0.0      ;
53101   54.66   0.0      ;
53104   31.35   0.0      ;
53105   31.51   6.038539242609555      ;
53106   30.43   0.0      ;
53107   38.91   0.0      ;
53110   55.06   0.0      ;
53111   55.06   0.0      ;
53116   32.43   0.0      ;
53117   33.61   0.0      ;
53118   38.04   0.0      ;
53119   38.7   0.0      ;
53122   12.06   0.0      ;
53123   12.06   0.0      ;
53124   12.7   0.0      ;
53125   12.43   0.0      ;
53130   44.16   0.0      ;
53131   44.78   0.0      ;
53132   35.21   0.0      ;
53133   35.21   0.0      ;
53136   27.4   0.0      ;
53137   27.82   0.0      ;
53148   12.21   0.0      ;
53149   12.21   0.0      ;
53150   64.93   0.0      ;
53151   65.42   0.0      ;
53152   72.66   0.0      ;
53153   71.24   0.0      ;
53162   43.48   0.0      ;
53163   44.73   0.0      ;
53168   31.42   0.0      ;
53169   31.69   0.0      ;
53178   48.07   0.0      ;
53179   48.07   0.0      ;
53193   47.94   0.0      ;
53194   45.19   0.0      ;
53195   36.06   0.0      ;
53196   36.06   0.0      ;
53197   15.75   0.0      ;
53198   15.75   0.0      ;
53199   52.79   0.0      ;
53200   50.95   0.0      ;
53201   13.07   0.0      ;
53202   12.85   0.0      ;
53203   25.66   0.0      ;
53204   25.53   0.0      ;
53207   19.8   0.0      ;
53208   19.86   0.0      ;
53209   71.95   0.0      ;
53210   71.95   0.0      ;
53213   57.37   0.0      ;
53214   57.14   0.0      ;
53217   57.57   2.9930383870157278      ;
53218   60.0   0.0      ;
53231   49.71   0.0      ;
53232   49.71   0.0      ;
53240   13.13   0.0      ;
53241   13.29   0.0      ;
53244   10.85   0.0      ;
53245   10.77   0.0      ;
53246   28.69   0.0      ;
53247   29.93   0.0      ;
53248   25.78   0.0      ;
53249   25.91   0.0      ;
53250   31.57   0.0      ;
53251   31.89   0.0      ;
53252   12.77   0.0      ;
53253   12.77   0.0      ;
53254   20.08   0.0      ;
53255   20.45   0.0      ;
53256   34.04   0.0      ;
53257   34.04   0.0      ;
53258   32.94   10.125619587312556      ;
53259   36.09   0.0      ;
53260   52.53   0.0      ;
53261   49.93   0.0      ;
53264   41.03   0.0      ;
53265   40.04   0.0      ;
53266   13.82   0.0      ;
53267   13.82   0.0      ;
53274   13.83   0.0      ;
53275   14.7   0.0      ;
53278   68.63   0.0      ;
53279   68.73   0.0      ;
53280   11.4   0.0      ;
53281   11.27   0.0      ;
53282   15.39   0.0      ;
53283   13.68   0.0      ;
53284   26.93   0.0      ;
53285   26.93   0.0      ;
53286   35.49   12.07261067802756      ;
53287   34.05   0.0      ;
53292   23.8   0.0      ;
53293   24.18   0.0      ;
53298   26.4   0.0      ;
53299   26.4   0.0      ;
53302   51.06   0.0      ;
53303   51.06   0.0      ;
53306   22.06   0.0      ;
53307   22.06   0.0      ;
53308   26.11   0.0      ;
53309   26.01   0.0      ;
53310   18.37   0.0      ;
53311   18.03   0.0      ;
53314   31.89   0.0      ;
53315   32.9   0.0      ;
53331   38.89   0.0      ;
53332   38.85   14.293680105709068      ;
53333   52.83   0.0      ;
53334   53.28   0.0      ;
53335   27.6   0.0      ;
53336   8.47   0.0      ;
53337   9.59   0.0      ;
53341   30.82   0.0      ;
53342   30.79   0.0      ;
53346   25.22   0.0      ;
53347   25.12   3.7354342306604806      ;
53350   10.11   0.0      ;
53351   10.68   0.0      ;
53353   12.16   0.0      ;
53354   12.16   0.0      ;
53357   46.53   0.0      ;
53358   46.53   0.0      ;
53359   51.37   0.0      ;
53360   51.37   0.0      ;
53361   11.52   0.0      ;
53362   10.73   0.0      ;
53363   38.23   0.0      ;
53364   38.24   0.0      ;
53365   46.81   0.0      ;
53366   46.81   0.0      ;
53367   35.82   0.0      ;
53368   36.56   0.0      ;
53369   27.65   0.0      ;
53370   24.61   0.0      ;
53371   48.95   5.990997084999206      ;
53372   49.82   0.0      ;
53373   17.24   6.1217889422134615      ;
53374   18.48   0.0      ;
53375   12.38   0.0      ;
53376   12.95   0.0      ;
53378   8.22   0.0      ;
53379   8.22   0.0      ;
53380   13.38   0.0      ;
53381   13.44   0.0      ;
53384   34.61   0.0      ;
53385   34.16   0.0      ;
53386   13.38   0.0      ;
53387   13.38   0.0      ;
53394   39.85   0.0      ;
53395   41.22   0.0      ;
53396   69.52   0.0      ;
53397   69.52   0.0      ;
53402   30.28   0.0      ;
53403   29.4   0.0      ;
53406   39.32   0.0      ;
53407   39.44   0.0      ;
53412   76.03   0.0      ;
53413   76.03   9.520561561438914      ;
53416   17.69   0.0      ;
53417   17.69   0.0      ;
53420   73.86   0.0      ;
53421   73.86   0.0      ;
53422   34.78   0.0      ;
53423   34.78   0.0      ;
53424   23.81   0.0      ;
53425   17.36   0.0      ;
53429   55.62   0.0      ;
53430   38.37   0.0      ;
53431   24.16   0.0      ;
53432   24.46   0.0      ;
53433   29.05   0.0      ;
53434   27.3   0.0      ;
53437   42.2   0.0      ;
53438   42.2   0.0      ;
53441   37.68   0.0      ;
53442   37.76   0.0      ;
53443   11.0   0.0      ;
53444   11.45   0.0      ;
53445   36.62   0.0      ;
53446   36.62   0.0      ;
53449   42.19   0.0      ;
53450   42.53   20.805500631864078      ;
53453   49.54   5.227670120923422      ;
53454   48.82   0.0      ;
53457   34.05   0.0      ;
53458   21.62   0.0      ;
53459   23.46   0.0      ;
53462   29.28   0.0      ;
53463   29.17   0.0      ;
53474   55.02   0.0      ;
53475   55.46   0.0      ;
53476   25.63   0.0      ;
53477   25.63   0.0      ;
53479   38.55   0.0      ;
53480   37.73   0.0      ;
53483   47.47   0.0      ;
53484   48.74   0.0      ;
53495   44.49   0.0      ;
53496   46.02   0.0      ;
53499   48.6   0.0      ;
53500   49.89   0.0      ;
53505   64.75   0.0      ;
53506   63.75   4.186027528376818      ;
53508   33.44   0.0      ;
53509   34.38   0.0      ;
53510   43.77   0.0      ;
53511   43.0   0.0      ;
53513   37.81   0.0      ;
53514   32.55   16.406744625362986      ;
53515   9.73   0.0      ;
53516   9.29   0.0      ;
53517   13.56   0.0      ;
53518   13.56   0.0      ;
53523   54.8   0.0      ;
53524   56.83   0.0      ;
53533   15.83   0.0      ;
53534   15.76   0.0      ;
53539   11.66   0.0      ;
53540   10.87   0.0      ;
53541   10.3   0.0      ;
53542   11.79   0.0      ;
53549   20.87   0.0      ;
53550   20.87   0.0      ;
53551   30.96   0.0      ;
53552   30.89   0.0      ;
53558   57.78   0.0      ;
53559   57.71   0.0      ;
53560   13.4   0.0      ;
53561   13.4   0.0      ;
53564   61.67   0.0      ;
53565   61.84   0.0      ;
53566   38.04   0.0      ;
53567   38.38   0.0      ;
53568   40.19   5.81339499607905      ;
53569   40.99   0.0      ;
53573   42.02   0.0      ;
53574   40.99   0.0      ;
53581   66.5   0.0      ;
53582   67.61   0.0      ;
53585   68.14   0.0      ;
53586   68.99   0.0      ;
53589   13.21   0.0      ;
53590   13.21   0.0      ;
53591   27.95   0.0      ;
53592   28.32   0.0      ;
53600   14.7   0.0      ;
53601   14.56   0.0      ;
53606   51.86   0.0      ;
53607   51.43   0.0      ;
53610   14.04   0.0      ;
53611   14.21   0.0      ;
53614   26.21   0.0      ;
53615   26.77   0.0      ;
53616   38.07   0.0      ;
53617   37.68   0.0      ;
53620   44.43   0.0      ;
53621   44.43   0.0      ;
53622   65.52   0.0      ;
53623   65.19   0.0      ;
53624   11.34   0.0      ;
53625   10.89   0.0      ;
53626   13.77   0.0      ;
53627   11.23   0.0      ;
53633   39.67   0.0      ;
53634   39.67   0.0      ;
53637   74.32   0.0      ;
53638   74.32   0.0      ;
53639   10.67   0.0      ;
53640   10.67   0.0      ;
53643   17.0   5.45722467523092      ;
53644   18.02   0.0      ;
53645   19.52   0.0      ;
53646   19.89   0.0      ;
53649   49.01   0.0      ;
53650   49.01   0.0      ;
53653   22.11   0.0      ;
53654   24.92   0.0      ;
53665   33.94   0.0      ;
53666   34.28   0.0      ;
53673   11.17   0.0      ;
53674   10.27   0.0      ;
53675   28.91   0.0      ;
53676   28.91   0.0      ;
53677   74.28   0.0      ;
53678   68.81   11.729769821460039      ;
53679   45.47   0.0      ;
53680   43.0   0.0      ;
53681   39.09   5.5183711602470735      ;
53700   40.86   0.0      ;
53701   37.97   0.0      ;
53706   10.9   0.0      ;
53707   10.47   0.0      ;
53710   58.77   0.0      ;
53711   58.77   0.0      ;
53713   49.58   0.0      ;
53714   48.95   0.0      ;
53715   43.58   0.0      ;
53716   39.37   0.0      ;
53719   45.63   0.0      ;
53720   46.02   0.0      ;
53721   46.67   0.5771530443180191      ;
53722   46.08   0.0      ;
53723   42.59   0.0      ;
53724   42.73   0.0      ;
53725   26.37   0.0      ;
53726   27.11   0.0      ;
53727   32.29   0.0      ;
53728   32.29   0.0      ;
53733   11.86   0.0      ;
53734   12.18   0.0      ;
53737   42.54   0.0      ;
53738   38.86   0.0      ;
53745   27.98   0.0      ;
53746   27.98   0.0      ;
53749   43.4   0.0      ;
53750   48.65   6.084482994525519      ;
53760   22.68   0.0      ;
53761   23.75   0.0      ;
53774   25.1   0.0      ;
53777   39.34   0.0      ;
53778   39.64   0.0      ;
53781   60.08   0.0      ;
53782   54.2   0.0      ;
53783   11.02   0.0      ;
53784   11.02   7.031459462255608      ;
53788   14.8   0.0      ;
53789   14.8   0.0      ;
53794   24.63   0.0      ;
53795   28.96   0.0      ;
53799   28.92   0.0      ;
53800   29.11   0.3579346262916012      ;
53801   41.26   0.0      ;
53802   51.33   0.0      ;
53803   50.2   0.0      ;
53814   12.81   0.0      ;
53815   10.82   0.0      ;
53824   43.25   0.0      ;
53825   43.65   0.0      ;
53826   12.43   0.0      ;
53827   12.43   0.0      ;
53832   52.03   0.0      ;
53833   52.38   2.397946343910992      ;
53834   11.39   0.0      ;
53841   47.05   0.0      ;
53842   47.05   0.0      ;
53847   47.24   0.0      ;
53848   23.75   0.0      ;
53849   23.12   2.8138049166674484      ;
53850   33.85   0.0      ;
53851   34.66   0.0      ;
53852   20.52   0.0      ;
53853   21.19   9.334874057555929      ;
53854   40.29   23.784498718462448      ;
53855   41.62   0.0      ;
53860   24.42   0.0      ;
53861   23.74   0.0      ;
53862   26.59   0.0      ;
53863   27.22   0.0      ;
53867   19.34   0.0      ;
53868   18.42   0.0      ;
53886   39.22   0.0      ;
53887   36.47   0.0      ;
53888   57.16   0.0      ;
53889   56.4   0.0      ;
53890   23.45   0.0      ;
53891   23.45   0.0      ;
53897   12.84   0.0      ;
53898   12.84   0.0      ;
53903   27.02   0.0      ;
53904   27.02   0.0      ;
53908   94.06   0.0      ;
53909   94.06   0.0      ;
53912   8.46   0.0      ;
53913   8.5   0.0      ;
53920   66.27   0.0      ;
53921   63.92   0.0      ;
53926   41.73   0.0      ;
53927   41.91   0.0      ;
53937   29.43   0.0      ;
53938   31.14   0.0      ;
53939   51.08   0.0      ;
53940   51.08   0.0      ;
53947   34.78   0.0      ;
53948   34.78   0.3930411227757412      ;
53949   71.68   0.0      ;
53950   71.98   0.0      ;
53951   53.27   0.0      ;
53952   52.42   0.0      ;
53955   12.64   0.0      ;
53956   11.47   0.0      ;
53957   24.68   0.0      ;
53958   24.68   0.0      ;
53959   29.98   0.4180902338984097      ;
53962   58.2   0.0      ;
53963   59.25   0.0      ;
53971   19.92   0.0      ;
53972   16.47   0.0      ;
53975   12.9   0.0      ;
53976   12.06   0.0      ;
53979   55.4   0.0      ;
53980   55.06   0.0      ;
53983   33.99   3.381729323653184      ;
53984   33.37   0.0      ;
53985   50.91   23.457442402452408      ;
53986   49.85   0.0      ;
53990   29.38   0.0      ;
53991   27.97   0.0      ;
53992   51.67   0.0      ;
53993   51.67   0.0      ;
53994   36.83   0.0      ;
53995   37.12   0.0      ;
53996   24.87   0.0      ;
53997   24.37   0.0      ;
53998   53.22   0.0      ;
53999   53.22   0.0      ;
54000   50.24   0.0      ;
54001   51.08   0.0      ;
54002   85.0   0.0      ;
54003   36.59   0.0      ;
54004   34.25   0.0      ;
54007   11.05   0.0      ;
54008   11.05   0.0      ;
54013   10.89   0.0      ;
54014   10.46   0.0      ;
54019   46.95   0.0      ;
54020   50.13   0.0      ;
54021   27.97   0.0      ;
54022   28.19   0.2562036777429668      ;
54023   24.92   0.0      ;
54024   14.14   0.0      ;
54028   32.8   0.0      ;
54029   32.23   0.0      ;
54043   33.7   10.821019806895475      ;
54044   32.83   0.0      ;
54045   63.82   0.0      ;
54046   63.97   0.0      ;
54047   41.35   0.0      ;
54048   41.98   0.0      ;
54049   13.13   0.0      ;
54052   24.83   0.0      ;
54053   24.83   0.0      ;
54054   39.75   8.796071957455771      ;
54055   38.13   0.0      ;
54056   13.43   0.0      ;
54057   15.23   8.101409550025709      ;
54058   82.27   0.0      ;
54059   81.46   0.0      ;
54060   25.89   0.0      ;
54061   17.42   0.0      ;
54062   68.88   0.0      ;
54063   67.45   0.0      ;
54069   39.42   0.0      ;
54070   41.22   0.0      ;
54071   11.7   0.0      ;
54074   78.18   0.0      ;
54075   76.1   0.0      ;
54076   11.15   0.0      ;
54077   11.47   0.0      ;
54080   31.57   0.0      ;
54081   31.57   0.0      ;
54087   33.73   0.0      ;
54091   56.15   0.0      ;
54092   55.57   5.740879758523903      ;
54100   74.92   11.01809387851748      ;
54101   70.89   0.0      ;
54107   31.9   0.0      ;
54108   33.36   0.0      ;
54113   53.81   0.0      ;
54114   47.01   0.0      ;
54117   10.22   0.0      ;
54118   10.29   0.0      ;
54121   16.47   6.450526358128368      ;
54122   20.28   6.42708256323953      ;
54125   53.27   0.0      ;
54126   53.27   0.0      ;
54128   51.73   0.0      ;
54129   51.89   0.0      ;
54137   14.29   0.0      ;
54138   13.71   0.0      ;
54141   44.49   0.0      ;
54142   58.46   0.0      ;
54143   58.77   0.0      ;
54153   27.99   0.0      ;
54154   27.99   0.0      ;
54155   23.63   0.0      ;
54156   24.88   0.0      ;
54157   57.97   0.0      ;
54158   57.97   0.0      ;
54163   9.46   0.0      ;
54164   10.05   0.0      ;
54165   10.05   0.0      ;
54168   30.78   0.0      ;
54169   31.06   0.0      ;
54170   23.99   0.0      ;
54171   23.99   0.0      ;
54172   13.89   0.0      ;
54177   38.85   0.0      ;
54184   47.47   0.0      ;
54185   48.1   6.821471965572692      ;
54190   39.51   0.0      ;
54195   51.4   0.0      ;
54198   46.39   0.0      ;
54199   48.49   0.0      ;
54200   47.15   8.655967941419341      ;
54201   35.99   0.0      ;
54202   51.73   0.0      ;
54203   45.39   0.0      ;
54206   20.64   0.0      ;
54207   20.84   0.0      ;
54208   10.58   0.0      ;
54209   10.58   0.0      ;
54210   42.27   5.849128273278394      ;
54211   43.32   0.5435944140689969      ;
54212   36.09   0.0      ;
54213   35.34   0.0      ;
54219   12.22   0.0      ;
54220   12.22   0.0      ;
54223   12.7   2.2616441104117073      ;
54224   11.53   0.0      ;
54225   55.95   0.0      ;
54226   49.15   0.0      ;
54227   21.54   0.0      ;
54228   20.26   0.0      ;
54237   42.24   0.0      ;
54238   42.24   0.0      ;
54243   15.37   0.0      ;
54244   15.62   0.0      ;
54245   73.98   0.0      ;
54252   32.2   0.0      ;
54253   35.28   0.0      ;
54258   17.26   0.0      ;
54259   17.06   0.0      ;
54262   24.2   0.0      ;
54263   52.17   0.0      ;
54264   90.39   0.0      ;
54265   75.71   8.147981132374102      ;
54268   10.94   0.0      ;
54269   11.22   0.0      ;
54270   28.32   0.0      ;
54271   29.47   0.0      ;
54272   52.77   0.0      ;
54273   53.94   0.0      ;
54274   19.29   0.0      ;
54275   18.49   0.0      ;
54276   44.8   0.0      ;
54277   44.8   0.0      ;
54278   35.17   0.0      ;
54279   23.97   0.0      ;
54280   23.29   0.0      ;
54281   19.57   0.0      ;
54282   19.16   0.0      ;
54287   51.47   0.0      ;
54288   47.76   0.0      ;
54293   31.71   0.0      ;
54294   31.71   0.0      ;
54295   13.62   0.0      ;
54296   13.62   0.0      ;
54299   32.68   0.0      ;
54300   31.55   0.0      ;
54301   38.0   0.0      ;
54302   37.97   0.0      ;
54305   58.81   0.0      ;
54314   75.32   0.0      ;
54315   75.25   0.0      ;
54322   8.3   0.0      ;
54323   7.79   0.0      ;
54324   11.25   0.0      ;
54325   10.23   0.0      ;
54328   51.21   3.6610799399996097      ;
54329   53.02   0.0      ;
54337   62.89   0.0      ;
54342   9.87   0.0      ;
54343   9.87   0.0      ;
54346   23.74   0.0      ;
54349   19.32   0.0      ;
54350   19.92   0.0      ;
54353   24.98   0.0      ;
54354   24.98   0.0      ;
54355   95.26   11.173736351873442      ;
54356   41.85   0.0      ;
54357   40.54   0.0      ;
54358   53.9   2.7880500531286683      ;
54359   52.96   0.0      ;
54366   45.63   0.0      ;
54367   45.63   0.0      ;
54369   34.74   0.0      ;
54370   34.4   0.0      ;
54371   32.4   0.0      ;
54372   32.4   0.0      ;
54373   10.63   0.0      ;
54374   9.82   0.0      ;
54377   92.91   0.0      ;
54378   84.02   0.0      ;
54381   24.2   0.0      ;
54382   24.31   0.0      ;
54383   66.27   0.0      ;
54384   66.08   0.0      ;
54389   41.68   13.716467587273312      ;
54390   45.04   0.0      ;
54391   69.41   0.0      ;
54392   73.77   0.0      ;
54395   77.13   0.0      ;
54396   76.78   0.0      ;
54397   40.32   0.0      ;
54398   39.85   0.0      ;
54399   25.28   0.0      ;
54400   26.98   0.0      ;
54405   15.6   0.0      ;
54406   15.26   0.0      ;
54407   59.49   0.0      ;
54408   60.2   0.0      ;
54409   44.04   0.0      ;
54410   44.04   0.0      ;
54415   14.51   0.0      ;
54416   16.41   0.0      ;
54424   18.91   6.413344851416202      ;
54425   18.91   0.0      ;
54430   59.78   0.0      ;
54431   59.58   0.0      ;
54432   11.41   0.0      ;
54433   12.57   0.0      ;
54434   29.67   0.0      ;
54435   29.34   0.0      ;
54436   24.58   0.0      ;
54437   25.53   0.0      ;
54444   59.42   0.0      ;
54445   11.32   0.0      ;
54446   11.18   0.0      ;
54447   13.68   0.0      ;
54448   13.95   0.0      ;
54451   26.06   0.0      ;
54452   26.88   0.0      ;
54455   10.85   0.0      ;
54456   10.94   0.0      ;
54457   76.35   7.377207645846601      ;
54458   76.35   0.0      ;
54459   20.07   0.0      ;
54460   20.3   0.0      ;
54462   18.35   20.50204646136315      ;
54463   23.68   0.0      ;
54464   50.13   2.502090049054013      ;
54465   33.59   0.0      ;
54466   33.59   0.0      ;
54476   47.69   0.0      ;
54477   46.44   0.0      ;
54480   12.44   0.0      ;
54481   12.16   0.0      ;
54482   30.91   0.0      ;
54485   16.22   0.0      ;
54486   12.2   0.0      ;
54487   11.47   0.0      ;
54492   18.81   0.0      ;
54493   32.38   0.0      ;
54494   75.75   0.0      ;
54495   75.25   0.0      ;
54503   34.47   0.0      ;
54504   34.19   0.0      ;
54505   39.87   0.0      ;
54506   39.54   0.0      ;
54509   65.26   0.0      ;
54510   66.09   0.0      ;
54513   67.07   0.0      ;
54514   63.3   0.0      ;
54515   11.93   0.0      ;
54516   12.43   0.0      ;
54519   12.08   0.0      ;
54520   12.08   0.0      ;
54521   23.99   0.0      ;
54522   23.74   0.0      ;
54523   75.13   0.0      ;
54524   73.24   0.0      ;
54526   19.12   0.0      ;
54527   20.12   0.0      ;
54530   19.85   0.0      ;
54531   21.44   0.0      ;
54534   33.82   0.0      ;
54535   33.97   0.0      ;
54540   8.17   0.0      ;
54541   8.17   0.0      ;
54544   57.85   0.0      ;
54545   55.95   0.0      ;
54550   39.13   9.195499822476457      ;
54551   40.13   0.0      ;
54558   13.87   0.0      ;
54559   12.99   0.0      ;
54560   51.09   0.0      ;
54561   31.54   0.0      ;
54562   31.42   0.0      ;
54575   40.88   0.0      ;
54578   32.11   0.0      ;
54579   32.13   0.0      ;
54582   10.87   0.0      ;
54583   10.87   0.0      ;
54584   12.38   0.0      ;
54585   12.38   0.7947291079119171      ;
54586   76.23   0.0      ;
54587   76.75   8.451568098245259      ;
54588   31.66   0.0      ;
54589   31.56   0.0      ;
54590   38.28   0.0      ;
54591   37.33   0.0      ;
54592   27.37   0.0      ;
54595   28.58   11.813985423049306      ;
54596   34.38   0.0      ;
54600   44.66   0.0      ;
54601   44.66   0.0      ;
54602   17.34   0.0      ;
54603   16.81   0.0      ;
54606   29.38   0.0      ;
54607   29.38   0.0      ;
54608   48.61   0.0      ;
54609   49.31   0.0      ;
54612   52.82   0.0      ;
54613   52.82   0.0      ;
54614   50.19   0.0      ;
54615   73.04   0.0      ;
54618   58.78   0.0      ;
54619   54.65   0.0      ;
54622   62.14   0.0      ;
54623   62.46   0.0      ;
54624   41.19   0.0      ;
54625   37.79   2.5265078656098776      ;
54628   41.35   0.0      ;
54635   27.3   0.0      ;
54638   36.17   0.0      ;
54639   46.87   10.990909214309557      ;
54640   47.34   0.0      ;
54641   67.07   0.0      ;
54649   47.94   32.28079028426265      ;
54650   50.84   0.0      ;
54661   12.99   0.0      ;
54662   12.99   0.0      ;
54669   27.51   0.0      ;
54672   25.11   0.0      ;
54673   25.11   0.0      ;
54674   27.12   0.0      ;
54675   26.83   0.0      ;
54677   12.28   0.0      ;
54678   11.1   0.0      ;
54679   76.29   0.0      ;
54680   76.78   0.0      ;
54681   26.69   6.397822413030718      ;
54682   13.62   0.0      ;
54683   14.03   0.0      ;
54684   46.81   0.0      ;
54685   46.33   0.0      ;
54690   22.13   6.0612040682820485      ;
54692   38.19   0.0      ;
54693   38.19   0.0      ;
54698   80.41   3.7569079686982776      ;
54699   85.5   0.0      ;
54701   58.34   0.0      ;
54710   8.21   0.0      ;
54724   57.74   6.03171982662156      ;
54725   53.72   0.0      ;
54726   15.09   0.0      ;
54727   15.09   0.0      ;
54728   15.42   0.0      ;
54729   15.42   0.0      ;
54730   55.09   0.0      ;
54731   54.65   0.0      ;
54732   74.47   0.0      ;
54733   72.68   0.0      ;
54734   42.2   0.0      ;
54735   40.39   0.0      ;
54736   54.99   0.0      ;
54737   18.69   0.0      ;
54738   18.69   0.0      ;
54741   16.1   0.0      ;
54742   16.1   0.0      ;
54743   24.0   0.0      ;
54744   25.39   0.0      ;
54748   11.27   0.0      ;
54752   23.89   0.0      ;
54759   67.07   0.0      ;
54765   68.33   0.0      ;
54766   68.33   4.146679665901024      ;