[JUNCTIONS]
;ID   Elev   Demand   Pattern  
29005   10.54   0.0      ;
29006   10.54   0.0      ;
29026   10.28   0.0      ;
52630   10.41   0.0      ;
52631   10.41   0.0      ;
52654   26.49   0.0      ;
52655   26.02   0.0      ;
52660   14.64   0.0      ;
52661   16.91   0.0      ;
52676   10.83   0.0      ;
52677   11.67   0.0      ;
52682   28.17   4.216707890745097      ;
52683   29.63   0.0      ;
52694   29.13   0.0      ;
52695   25.23   0.0      ;
52700   13.22   0.0      ;
52701   9.78   0.0      ;
52724   9.39   0.0      ;
52725   10.33   0.0      ;
52726   10.25   0.0      ;
52727   10.25   0.0      ;
52732   16.83   0.0      ;
52733   16.16   0.0      ;
52747   15.97   0.0      ;
52748   15.65   0.0      ;
52749   29.92   0.0      ;
52750   29.96   0.0      ;
52769   9.42   0.0      ;
52770   9.86   0.0      ;
52779   29.76   0.0      ;
52780   29.85   0.0      ;
52791   28.17   0.0      ;
52792   29.06   0.0      ;
52793   10.89   0.0      ;
52794   10.89   0.0      ;
52809   30.44   0.0      ;
52810   30.44   0.0      ;
52823   12.47   0.0      ;
52824   12.74   0.0      ;
52846   26.82   0.0      ;
52847   33.54   0.0      ;
52855   23.67   0.0      ;
52856   23.67   4.117245246370183      ;
52859   12.66   0.0      ;
52860   12.79   0.0      ;
52869   15.33   0.0      ;
52870   13.94   0.0      ;
52877   23.61   0.0      ;
52878   26.65   0.0      ;
52887   14.98   0.0      ;
52888   15.66   0.0      ;
52895   10.91   0.0      ;
52896   10.88   3.9508860919778033      ;
52909   23.86   0.0      ;
52910   24.56   0.0      ;
52929   15.75   0.0      ;
52930   15.02   0.0      ;
52935   19.2   9.847520379340168      ;
52936   19.05   0.0      ;
52941   10.76   0.0      ;
52942   10.76   0.0      ;
52951   10.51   0.0      ;
52952   11.13   0.0      ;
52967   8.19   0.0      ;
52968   7.83   0.0      ;
52973   9.55   5.903466364514905      ;
52974   7.7   0.0      ;
52975   8.68   0.0      ;
52976   9.26   4.878516042698076      ;
52996   21.74   0.0      ;
52997   11.45   0.0      ;
53018   18.19   0.0      ;
53019   17.88   0.0      ;
53022   25.29   7.955934408631      ;
53023   23.55   0.0      ;
53024   22.11   0.0      ;
53025   20.44   0.0      ;
53032   12.38   0.0      ;
53050   10.18   0.0      ;
53051   10.18   0.0      ;
53060   29.11   0.0      ;
53061   28.03   0.0      ;
53080   12.4   0.0      ;
53081   11.74   0.0      ;
53082   10.09   0.0      ;
53083   11.34   0.0      ;
53092   30.84   0.0      ;
53093   29.52   5.070966760641342      ;
53112   8.74   0.0      ;
53113   8.74   0.0      ;
53138   9.41   0.0      ;
53139   9.03   3.6232159809211297      ;
53142   18.88   0.0      ;
53143   18.43   0.0      ;
53144   14.38   0.0      ;
53145   14.31   0.0      ;
53164   25.09   0.0      ;
53165   26.16   7.913954002145867      ;
53176   11.32   0.0      ;
53177   10.68   0.0      ;
53182   8.74   0.0      ;
53183   8.74   0.0      ;
53186   25.44   0.0      ;
53187   25.44   0.0      ;
53192   29.93   0.0      ;
53205   16.1   0.0      ;
53206   16.53   0.0      ;
53211   11.14   0.0      ;
53212   10.81   0.0      ;
53215   33.25   0.0      ;
53216   33.8   0.0      ;
53223   29.11   0.0      ;
53224   29.11   0.0      ;
53225   8.8   0.0      ;
53226   9.35   0.0      ;
53234   8.98   0.0      ;
53235   8.58   0.0      ;
53238   10.78   0.0      ;
53239   10.78   0.0      ;
53268   10.09   0.0      ;
53269   9.96   13.326348851117404      ;
53288   24.09   10.124939468221427      ;
53289   24.21   0.0      ;
53290   8.4   0.0      ;
53294   9.51   0.0      ;
53295   9.17   0.0      ;
53300   19.98   0.0      ;
53301   19.98   0.0      ;
53312   28.82   0.0      ;
53313   28.4   0.0      ;
53320   15.02   0.0      ;
53321   14.72   0.0      ;
53344   16.81   0.0      ;
53345   18.0   0.0      ;
53348   21.25   0.0      ;
53349   21.25   0.0      ;
53388   22.44   0.0      ;
53389   22.87   0.0      ;
53392   15.33   0.0      ;
53393   15.33   0.0      ;
53404   13.93   0.0      ;
53405   13.51   0.0      ;
53410   10.8   0.0      ;
53411   10.09   0.0      ;
53414   11.14   0.0      ;
53415   10.81   0.0      ;
53418   12.04   0.0      ;
53419   12.67   0.0      ;
53426   29.11   0.0      ;
53439   30.07   0.0      ;
53440   30.15   0.0      ;
53447   32.01   0.0      ;
53448   30.96   0.0      ;
53469   18.54   0.0      ;
53470   9.83   0.0      ;
53471   9.42   3.0716958346280814      ;
53472   18.92   0.0      ;
53473   20.68   5.73139270107548      ;
53489   28.79   0.0      ;
53490   27.92   0.0      ;
53497   22.35   0.0      ;
53498   21.63   4.94471882100168      ;
53503   10.93   15.348161003888654      ;
53504   9.62   0.0      ;
53507   28.03   0.0      ;
53525   10.32   0.0      ;
53526   11.59   0.0      ;
53529   30.33   0.0      ;
53530   30.51   0.0      ;
53535   24.23   0.0      ;
53536   24.38   0.0      ;
53547   13.9   0.0      ;
53548   14.2   0.0      ;
53575   30.54   11.136687065670895      ;
53576   31.72   0.0      ;
53577   25.06   0.0      ;
53578   26.04   0.0      ;
53583   14.41   0.0      ;
53584   14.43   0.0      ;
53587   22.37   0.0      ;
53588   22.85   0.0      ;
53593   7.96   0.0      ;
53594   7.96   0.0      ;
53595   15.62   0.0      ;
53596   15.6   0.0      ;
53599   23.23   0.0      ;
53612   30.57   0.0      ;
53613   30.69   0.0      ;
53618   10.87   0.0      ;
53619   10.07   0.0      ;
53641   29.15   0.0      ;
53642   28.71   0.0      ;
53651   11.07   0.0      ;
53652   13.14   0.5130633069125331      ;
53657   11.47   0.0      ;
53658   11.11   0.0      ;
53659   31.34   0.0      ;
53660   29.51   0.0      ;
53661   30.14   13.557370248887095      ;
53662   30.69   0.0      ;
53667   26.86   13.547857148702644      ;
53668   30.22   0.0      ;
53688   12.46   0.0      ;
53689   12.46   0.0      ;
53692   24.6   0.0      ;
53693   24.41   0.0      ;
53702   19.5   0.0      ;
53703   20.09   0.0      ;
53704   8.3   0.0      ;
53705   10.69   0.0      ;
53708   12.87   12.218837643941903      ;
53709   14.42   0.0      ;
53717   25.29   0.0      ;
53718   24.85   0.0      ;
53739   8.95   0.0      ;
53740   9.19   0.0      ;
53741   10.78   0.0      ;
53742   11.7   0.0      ;
53743   11.9   0.0      ;
53744   11.9   0.0      ;
53753   11.5   6.130567895112453      ;
53754   11.92   0.0      ;
53755   15.7   14.462622096928357      ;
53756   16.58   0.0      ;
53766   15.49   6.752116655532807      ;
53767   14.64   0.0      ;
53791   27.2   0.0      ;
53792   26.46   13.545482884181151      ;
53797   26.08   0.0      ;
53798   25.74   15.291058693122306      ;
53806   16.31   0.0      ;
53807   16.84   0.0      ;
53816   20.68   0.0      ;
53817   20.73   0.0      ;
53822   12.2   0.0      ;
53823   3.44   0.0      ;
53828   15.88   0.0      ;
53829   17.31   19.02188587431536      ;
53845   8.8   0.0      ;
53846   8.27   0.0      ;
53864   32.27   0.0      ;
53865   31.75   0.0      ;
53869   10.53   0.0      ;
53870   10.53   0.0      ;
53874   24.57   3.9733372816704886      ;
53875   24.57   0.0      ;
53876   19.52   0.0      ;
53877   20.04   0.0      ;
53882   7.9   0.0      ;
53883   7.94   0.0      ;
53895   14.33   0.0      ;
53896   14.35   0.0      ;
53905   10.42   0.0      ;
53906   10.04   0.0      ;
53907   12.78   0.0      ;
53910   9.17   0.0      ;
53911   10.33   0.0      ;
53914   13.86   0.0      ;
53915   13.42   0.0      ;
53922   8.98   0.0      ;
53923   8.23   0.0      ;
53928   25.69   0.0      ;
53929   26.23   0.0      ;
53933   25.03   0.0      ;
53934   25.23   13.482098441126961      ;
53941   8.28   0.0      ;
53942   8.03   0.0      ;
53945   22.23   0.0      ;
53946   22.12   0.0      ;
53953   7.78   0.0      ;
53954   8.11   0.0      ;
53960   28.17   0.0      ;
53961   28.17   0.0      ;
53965   11.5   0.0      ;
53966   11.43   0.0      ;
53967   26.14   0.0      ;
53968   26.14   0.0      ;
53969   33.57   0.0      ;
53970   33.06   0.0      ;
53973   8.85   0.0      ;
53974   9.12   0.0      ;
53981   18.77   0.0      ;
53982   18.77   0.0      ;
53987   25.96   0.0      ;
53988   25.96   0.0      ;
54009   14.89   0.0      ;
54010   12.78   0.0      ;
54016   9.29   0.0      ;
54017   9.28   1.1104599602421268      ;
54018   15.87   7.563530225460544      ;
54034   9.64   0.0      ;
54035   9.31   0.0      ;
54037   26.49   0.0      ;
54038   26.83   0.0      ;
54041   10.23   0.0      ;
54042   13.29   0.0      ;
54067   27.31   0.0      ;
54068   26.59   0.0      ;
54072   9.33   0.0      ;
54073   9.3   0.0      ;
54082   13.98   0.0      ;
54083   13.23   0.0      ;
54086   22.36   5.139923092910687      ;
54088   29.26   0.0      ;
54089   28.67   0.0      ;
54090   28.25   5.420969875066559      ;
54093   29.23   0.0      ;
54094   23.6   0.0      ;
54095   24.06   0.0      ;
54096   10.01   0.0      ;
54097   10.63   0.0      ;
54098   10.11   0.0      ;
54099   10.04   0.0      ;
54105   11.34   0.0      ;
54106   12.35   0.0      ;
54111   23.24   0.0      ;
54119   28.26   0.0      ;
54120   27.48   0.0      ;
54123   9.85   0.0      ;
54124   9.13   0.0      ;
54134   20.54   0.0      ;
54139   15.79   0.0      ;
54140   15.79   0.0      ;
54145   14.45   0.0      ;
54146   14.45   0.0      ;
54151   23.82   0.0      ;
54152   23.73   0.0      ;
54166   13.85   0.0      ;
54167   13.6   0.0      ;
54175   11.25   0.0      ;
54176   11.25   0.0      ;
54178   17.64   15.283039659635927      ;
54179   17.8   0.0      ;
54182   22.39   0.0      ;
54183   22.73   13.634363729747466      ;
54191   10.78   0.0      ;
54192   10.78   0.0      ;
54216   30.07   0.0      ;
54217   29.18   0.0      ;
54218   29.11   0.0      ;
54221   26.23   0.0      ;
54222   25.36   0.0      ;
54229   16.55   0.0      ;
54230   19.51   0.0      ;
54233   9.91   0.0      ;
54234   9.91   0.0      ;
54235   9.52   0.0      ;
54236   11.64   0.0      ;
54239   27.63   0.0      ;
54240   27.84   0.0      ;
54241   12.43   0.0      ;
54242   12.43   0.0      ;
54246   13.69   0.0      ;
54247   13.68   0.0      ;
54248   25.85   12.766644966584018      ;
54249   23.94   0.0      ;
54250   29.67   0.0      ;
54251   29.19   0.0      ;
54254   18.1   0.0      ;
54255   18.34   12.301915425905689      ;
54266   32.65   0.0      ;
54267   32.49   0.0      ;
54283   11.19   0.0      ;
54284   10.67   0.0      ;
54291   12.56   0.0      ;
54292   12.89   0.0      ;
54306   28.56   0.0      ;
54307   28.56   0.0      ;
54308   8.87   0.0      ;
54309   9.04   0.0      ;
54310   17.25   3.640534080960312      ;
54311   18.92   0.0      ;
54312   10.26   0.0      ;
54313   10.95   0.0      ;
54334   16.8   0.0      ;
54344   9.04   0.0      ;
54345   10.18   0.0      ;
54347   22.35   7.8266080142981735      ;
54348   24.33   0.0      ;
54364   30.75   0.0      ;
54365   30.75   0.0      ;
54368   12.76   0.0      ;
54375   33.49   0.0      ;
54376   33.49   0.0      ;
54385   12.01   0.0      ;
54386   12.34   0.0      ;
54387   10.64   0.0      ;
54388   10.64   0.0      ;
54393   13.97   4.756955319688934      ;
54394   11.84   0.0      ;
54403   11.92   0.0      ;
54404   11.75   0.0      ;
54419   11.37   0.0      ;
54420   11.83   0.0      ;
54422   28.38   0.0      ;
54423   28.38   0.0      ;
54426   8.03   0.0      ;
54427   8.03   0.0      ;
54449   25.21   4.246125328727516      ;
54450   22.86   0.0      ;
54471   27.81   8.918810271350058      ;
54472   29.37   0.0      ;
54478   14.07   0.0      ;
54479   14.92   5.586919473227542      ;
54490   23.91   0.0      ;
54491   22.99   0.0      ;
54497   25.46   7.488413637670813      ;
54498   26.95   0.0      ;
54517   14.79   0.0      ;
54518   14.63   0.0      ;
54525   8.21   0.0      ;
54528   33.38   0.0      ;
54529   33.05   0.0      ;
54538   15.51   0.0      ;
54539   15.51   0.0      ;
54546   8.37   0.0      ;
54547   8.37   0.0      ;
54548   9.7   0.0      ;
54549   9.7   0.0      ;
54556   9.63   0.0      ;
54557   9.63   0.0      ;
54567   9.12   0.0      ;
54568   8.74   0.0      ;
54598   25.79   0.0      ;
54599   30.22   0.0      ;
54616   8.71   0.0      ;
54617   8.71   0.0      ;
54620   20.38   0.0      ;
54621   20.38   0.0      ;
54626   29.03   0.0      ;
54627   29.11   0.0      ;
54633   8.73   0.0      ;
54634   8.72   0.0      ;
54636   9.57   0.0      ;
54637   9.05   0.0      ;
54645   20.15   0.0      ;
54646   16.04   0.0      ;
54651   15.04   0.0      ;
54652   13.92   0.0      ;
54653   29.75   0.0      ;
54654   29.32   0.0      ;
54657   11.01   0.0      ;
54658   11.01   0.0      ;
54663   8.1   0.0      ;
54664   8.1   0.0      ;
54665   32.38   0.0      ;
54666   31.46   18.612443260096573      ;
54667   14.33   0.0      ;
54668   14.31   0.0      ;
54686   32.65   0.0      ;
54689   12.13   0.0      ;
54696   22.66   0.0      ;
54697   24.04   0.0      ;
54700   17.99   0.0      ;
54706   14.34   0.0      ;
54707   10.78   0.0      ;
54711   18.43   0.0      ;
54712   26.54   0.0      ;
54713   27.48   0.0      ;
54716   15.01   0.0      ;
54717   14.07   0.0      ;
54722   19.13   18.155192439385605      ;
54723   20.43   0.0      ;
54755   8.03   0.0      ;
54758   9.32   0.0      ;
54760   24.19   0.0      ;
54789   32.32   0.0      ;
54790   32.32   0.0      ;
54797   10.52   3.065088349316314      ;
54798   10.47   0.0      ;
54799   9.95   0.0      ;
54800   9.89   0.0      ;
54803   13.16   0.0      ;
54804   13.2   0.0      ;
54810   15.05   0.0      ;
54811   15.45   0.0      ;
54816   9.35   0.0      ;
54817   9.21   0.0      ;
54822   14.88   0.0      ;
54823   14.63   0.0      ;
54849   11.66   0.0      ;
54850   13.54   0.0      ;
54851   11.93   0.0      ;
54852   13.15   0.0      ;
54853   12.12   0.0      ;
54854   12.54   0.0      ;
54855   16.36   0.0      ;
54856   16.36   0.0      ;
54861   20.76   0.0      ;
54862   21.22   0.0      ;
54876   10.55   0.0      ;
54877   10.63   0.0      ;
54879   9.54   0.0      ;
54885   17.83   3.9834853033329214      ;
54891   18.54   0.0      ;
54892   18.87   0.0      ;
54893   27.01   0.0      ;
54894   24.12   0.0      ;
54900   29.25   0.0      ;
54901   30.64   5.465485559279713      ;
54902   25.5   0.0      ;
54912   19.39   3.9729588828288898      ;
54913   15.29   0.0      ;
54917   29.35   0.0      ;
54922   14.24   0.0      ;
54923   14.15   0.0      ;
54930   14.31   0.0      ;
54931   14.88   0.0      ;
54940   12.12   0.0      ;
54941   12.12   0.0      ;
54944   25.34   0.0      ;
54945   25.51   0.0      ;
54952   9.38   0.0      ;
54953   10.16   0.0      ;
54959   28.87   0.0      ;
54960   28.23   0.0      ;
54966   10.45   0.0      ;
54967   9.06   3.0815153299135205      ;
54979   18.53   0.0      ;
54980   20.66   0.0      ;
54981   20.8   0.0      ;
54994   22.28   0.0      ;
54995   22.28   0.0      ;
55003   25.64   0.0      ;
55004   25.42   0.0      ;
55007   29.36   0.0      ;
55008   28.91   3.959432217858313      ;
55025   32.62   0.0      ;
55026   31.86   5.592621722389467      ;
55029   14.18   0.0      ;
55042   8.4   0.0      ;
55043   8.6   0.0      ;
55046   18.08   0.0      ;
55047   17.98   0.0      ;
55051   9.02   0.0      ;
55052   9.02   0.0      ;
55063   22.86   0.0      ;
55064   22.65   0.0      ;
55067   12.29   0.0      ;
55068   12.34   0.0      ;
55069   10.81   0.0      ;
55070   10.81   0.0      ;
55074   31.41   0.0      ;
55075   31.55   0.0      ;
55084   9.95   0.0      ;
55085   9.95   0.0      ;
55095   10.8   0.0      ;
55096   11.04   0.0      ;
55105   22.24   0.0      ;
55106   22.24   0.0      ;
55114   9.96   0.0      ;
55115   9.72   0.0      ;
55124   10.3   0.0      ;
55125   10.3   0.0      ;
55133   15.28   0.0      ;
55134   15.12   0.0      ;
55148   21.64   0.0      ;
55149   21.82   0.0      ;
55157   9.52   0.0      ;
55164   15.15   5.913594477608522      ;
55165   13.47   0.0      ;
55168   10.37   0.0      ;
55175   33.11   0.0      ;
55176   32.97   0.0      ;
55181   20.73   0.0      ;
55188   11.63   0.0      ;
55189   9.36   0.0      ;
55196   11.02   0.0      ;
55197   11.02   0.0      ;
55239   32.96   0.0      ;
55240   33.75   0.0      ;
55241   25.44   0.0      ;
55242   25.63   0.0      ;
55256   31.87   0.0      ;
55257   32.32   0.0      ;
55258   34.62   0.0      ;
55259   34.63   0.0      ;
55260   11.27   0.0      ;
55266   28.1   0.0      ;
55268   13.66   0.0      ;
55269   15.41   0.0      ;
55270   10.34   0.0      ;
55271   10.81   0.0      ;
55276   11.03   0.0      ;
55277   11.28   0.0      ;
55289   33.45   0.0      ;
55297   31.82   0.0      ;
55298   31.81   0.0      ;
55299   16.51   0.0      ;
55302   11.49   0.0      ;
55303   10.37   0.0      ;
55316   29.11   0.0      ;
55317   9.39   0.0      ;
55318   9.39   0.0      ;
55325   33.65   13.660194811649092      ;
55326   33.65   0.0      ;
55332   27.48   7.967339000539407      ;
55343   11.37   0.0      ;
55348   15.3   0.0      ;
55349   17.49   0.0      ;
55353   27.23   0.0      ;
55354   26.95   0.0      ;
55363   25.72   0.0      ;
55364   26.59   10.710250616157012      ;
55367   17.61   0.0      ;
55368   12.41   0.0      ;
55370   10.19   0.0      ;
55371   10.34   0.0      ;
55372   12.57   0.0      ;
55379   8.3   0.0      ;
55380   8.3   0.0      ;
55392   17.91   0.0      ;
55393   18.37   4.966394746743247      ;
55396   10.63   0.0      ;
55397   10.6   0.0      ;
55407   27.64   0.0      ;
55408   27.22   0.0      ;
55424   22.9   0.0      ;
55425   20.87   4.344199973774394      ;
55426   13.15   0.0      ;
55427   10.47   0.0      ;
55428   14.63   0.0      ;
55430   22.27   0.0      ;
55431   24.58   3.9558665408849047      ;
55434   29.53   0.0      ;
55435   19.95   0.0      ;
55436   19.72   0.0      ;
55445   23.73   0.0      ;
55450   22.29   0.0      ;
55451   23.13   0.0      ;
55456   16.39   0.0      ;
55457   16.17   0.0      ;
55472   7.79   0.0      ;
55473   9.2   0.0      ;
55474   9.13   0.0      ;
55484   15.85   0.0      ;
55485   15.85   0.0      ;
55486   31.16   0.0      ;
55487   31.16   0.0      ;
55518   9.19   0.0      ;
55519   9.19   0.0      ;
55522   34.18   0.0      ;
55523   34.21   0.0      ;
55528   19.6   20.21486340767298      ;
55529   15.67   0.0      ;
55534   12.13   0.0      ;
55535   12.05   0.0      ;
55545   10.34   0.0      ;
55546   12.89   0.0      ;
55549   9.26   0.0      ;
55550   9.64   0.0      ;
55551   28.76   0.0      ;
55553   32.54   0.0      ;
55554   32.56   40.4071940062711      ;
55561   22.09   0.0      ;
55562   22.12   0.0      ;
55567   9.27   0.0      ;
55568   9.87   0.0      ;
55579   10.11   0.0      ;
55580   10.11   0.7588943491193604      ;
55589   12.39   0.0      ;
55590   11.71   0.0      ;
55594   15.78   0.0      ;
55595   17.98   0.0      ;
55603   17.91   0.0      ;
55614   0.0   0.0      ;
55621   32.09   0.0      ;
55622   32.02   0.0      ;
55623   9.75   0.0      ;
55624   9.75   0.0      ;
55625   9.7   0.0      ;
55626   9.7   0.0      ;
55636   10.68   0.0      ;
55637   19.59   0.0      ;
55638   19.81   0.0      ;
55639   10.32   0.0      ;
55640   9.88   0.0      ;
55641   8.96   0.0      ;
55642   10.63   0.0      ;
55663   18.7   0.0      ;
55664   17.06   0.0      ;
55681   9.21   0.0      ;
55682   8.7   0.0      ;
55694   14.09   0.0      ;
55699   28.2   0.0      ;
55716   18.08   0.0      ;
55717   18.66   4.31802235848873      ;
55737   10.42   0.0      ;
55738   9.71   0.0      ;
55745   15.06   0.0      ;
55746   19.32   0.0      ;
55748   10.46   0.0      ;
55749   10.74   0.0      ;
55756   10.33   0.0      ;
55757   10.01   0.0      ;
55764   24.58   0.0      ;
55765   23.14   0.0      ;
55768   8.95   0.0      ;
55769   10.24   0.0      ;
55770   14.52   0.0      ;
55771   14.28   0.0      ;
55779   17.48   0.0      ;
55780   17.48   0.0      ;
55781   21.21   0.0      ;
55782   20.35   0.0      ;
55783   32.82   0.0      ;
55784   32.33   6.042112804553338      ;
55794   25.29   0.0      ;
55795   25.45   0.0      ;
55799   25.45   0.0      ;
55800   27.53   5.101258061854281      ;
55810   28.9   0.0      ;
55811   29.03   0.0      ;
55824   20.1   0.0      ;
55825   4.92   0.0      ;
55832   12.84   0.0      ;
55833   12.98   0.0      ;
55834   14.72   0.0      ;
55835   14.18   0.0      ;
55848   29.19   0.0      ;
55849   29.71   13.668734659481439      ;
55874   14.95   0.0      ;
55875   15.89   6.937109604275287      ;
55882   32.06   0.0      ;
55883   31.93   0.0      ;
55890   20.69   0.0      ;
55891   20.69   0.0      ;
55898   23.61   0.0      ;
55899   23.61   0.0      ;
55916   12.26   0.0      ;
55917   13.34   0.0      ;
55918   12.9   0.0      ;
55919   12.9   0.0      ;
55922   10.75   0.0      ;
55926   29.8   0.0      ;
55927   29.83   0.0      ;
55939   33.38   0.0      ;
55940   33.38   0.0      ;
55948   20.56   0.0      ;
55949   19.91   0.0      ;
55967   12.22   0.0      ;
55997   28.65   0.0      ;
55998   28.65   0.0      ;
56003   32.33   0.0      ;
56004   31.01   0.0      ;
56005   14.42   0.0      ;
56010   14.22   0.0      ;
56011   14.22   0.0      ;
56014   14.73   0.0      ;
56015   14.12   0.0      ;
56023   17.77   0.0      ;
56024   17.77   0.0      ;
56025   9.16   0.0      ;
56026   9.36   0.0      ;
56027   10.64   0.0      ;
56030   12.8   0.0      ;
56031   13.75   0.0      ;
56039   18.54   13.671462794914286      ;
56040   19.52   0.0      ;
56047   25.77   4.1196273580137435      ;
56048   23.15   0.0      ;
56054   15.05   0.0      ;
56061   14.48   14.74331926471586      ;
56062   14.8   0.0      ;
56063   9.87   0.0      ;
56072   10.41   0.0      ;
56073   9.31   0.0      ;
56078   28.41   7.6964240168019495      ;
56079   28.56   0.0      ;
56082   22.95   0.0      ;
56083   20.89   0.0      ;
56084   16.5   0.0      ;
56085   13.84   14.9499133323911      ;
56097   10.67   0.0      ;
56098   11.25   0.0      ;
56114   18.85   0.0      ;
56115   20.47   0.0      ;
56116   20.61   0.0      ;
56119   33.22   0.0      ;
56122   12.39   0.0      ;
56123   9.95   0.0      ;
56124   8.89   0.0      ;
56142   12.34   0.0      ;
56143   12.34   0.0      ;
56150   27.12   0.0      ;
56151   27.99   0.0      ;
56153   9.37   0.0      ;
56154   9.37   0.0      ;
56157   15.45   5.719100764281252      ;
56158   12.13   0.0      ;
56160   13.01   0.0      ;
56161   11.97   30.34205650407264      ;
56165   21.78   0.0      ;
56167   11.43   0.0      ;
56172   22.16   0.0      ;
56173   22.66   0.0      ;
56175   10.51   0.0      ;
56180   15.21   0.0      ;
56181   15.35   8.560296139292568      ;
56187   12.47   8.92304362349348      ;
56191   30.33   0.0      ;
56192   14.31   0.0      ;
56194   31.85   0.0      ;
56198   13.44   0.0      ;
56199   10.11   0.0      ;
56219   30.45   0.0      ;
56220   30.61   0.0      ;
56221   30.14   0.0      ;
56222   30.2   0.0      ;
56231   21.61   0.0      ;
56232   21.79   0.0      ;
56249   25.18   0.0      ;
56250   25.44   0.0      ;
56254   10.52   0.0      ;
56259   11.37   0.0      ;
56262   12.87   2.7456133989788967      ;
56263   13.52   0.0      ;
56266   10.66   0.0      ;
56267   10.9   0.0      ;
56314   9.65   0.0      ;
56315   9.51   0.0      ;
56321   26.28   0.0      ;
56397   25.71   3.9989985208811407      ;
56398   23.86   0.0      ;
56399   26.09   16.15863290790315      ;
56400   28.87   0.0      ;
56401   28.24   0.0      ;
56404   12.31   0.0      ;
56405   12.3   0.0      ;
56412   33.64   0.0      ;
56413   33.15   0.0      ;
56496   27.83   4.67829705957695      ;
56545   9.89   0.0      ;
56546   8.45   0.0      ;
56547   11.44   0.0      ;
56555   11.73   0.0      ;
56556   11.73   0.0      ;
56604   14.28   0.0      ;
56605   14.48   0.0      ;
56612   27.19   0.0      ;
56684   15.21   0.0      ;
56685   14.65   0.0      ;
56693   9.83   0.0      ;
56700   26.97   0.0      ;
56736   11.67   0.0      ;
56737   11.9   0.0      ;
56746   13.96   6.320367495774244      ;
56747   15.65   0.0      ;
56748   19.81   0.0      ;
56749   21.52   0.0      ;
56750   8.5   0.0      ;
56756   30.75   0.0      ;
56757   30.52   0.0      ;
56787   14.05   0.0      ;
56788   14.44   0.0      ;
56812   23.63   0.0      ;
56813   24.47   7.446052031027714      ;
56846   12.57   0.0      ;
56847   12.31   0.0      ;
56852   31.4   0.0      ;
56853   30.45   0.0      ;
56854   12.06   0.0      ;
56856   7.79   0.0      ;
56857   8.61   0.0      ;
56858   8.8   0.0      ;
56859   7.89   0.0      ;
56860   9.43   0.0      ;
56861   10.07   0.0      ;
56911   20.63   0.0      ;
56912   20.63   0.0      ;
56923   10.95   0.0      ;
56924   10.61   3.033300439757589      ;
56956   12.34   0.0      ;
57021   9.7   0.0      ;
57022   8.29   0.0      ;
57023   10.89   3.0544462561574086      ;
57026   15.06   0.0      ;
57027   15.06   0.0      ;
57031   31.93   0.0      ;
57032   32.36   0.0      ;
57034   9.63   0.0      ;
57036   11.0   14.218285755744596      ;
57037   8.96   0.0      ;
57096   26.0   0.0      ;
57097   28.56   0.0      ;
57106   22.46   0.0      ;
57107   23.07   0.0      ;
57108   28.23   0.0      ;
57109   27.76   0.0      ;
57150   10.34   0.0      ;
57151   10.69   0.0      ;
57159   9.37   0.0      ;
57160   24.34   0.0      ;
57161   24.34   0.0      ;
57165   23.12   0.0      ;
57166   23.12   0.0      ;
57204   11.67   0.0      ;
57207   11.92   12.427404751782394      ;
57255   26.98   0.0      ;
57257   8.0   0.0      ;
57258   8.0   0.0      ;
57263   22.95   0.0      ;
57264   19.94   0.0      ;
57326   26.63   3.943250387536844      ;
57327   28.65   0.0      ;
57330   11.0   9.513002268755324      ;
57338   31.43   0.0      ;
57339   31.43   0.0      ;
57342   28.72   0.0      ;
57371   31.39   0.0      ;
57377   10.45   0.0      ;
57378   9.83   0.0      ;
57386   23.75   0.0      ;
57387   23.5   24.64104255412325      ;
57392   21.88   0.0      ;
57393   21.88   0.0      ;
57423   10.68   0.0      ;
57424   10.26   0.0      ;
57427   14.21   0.0      ;
57428   14.42   0.0      ;
57439   30.36   0.0      ;
57440   31.12   0.0      ;
57441   14.86   0.0      ;
57478   33.54   0.0      ;
57479   31.78   0.0      ;
57482   30.36   0.0      ;
57492   17.43   0.0      ;
57547   22.26   0.0      ;
57548   25.35   0.0      ;
57601   25.5   0.0      ;
57602   26.28   0.0      ;
57633   30.15   0.0      ;
57634   30.66   0.0      ;
57637   10.88   0.0      ;
57638   10.27   0.0      ;
57647   16.94   0.0      ;
57692   18.37   0.0      ;
57702   22.96   0.0      ;
57703   22.88   0.0      ;
57816   25.1   0.0      ;
57825   20.14   0.0      ;
57827   14.21   0.0      ;
57831   10.93   3.0606102068821257      ;
57865   31.73   10.90706494981148      ;
57869   13.93   6.069620483850021      ;
57870   13.93   5.00740329157951      ;
57920   16.06   0.0      ;
57921   16.0   0.0      ;
57957   29.11   0.0      ;
57958   28.71   0.0      ;
58008   14.04   5.389339150862821      ;
58009   13.98   0.0      ;
58014   29.08   10.431992648453026      ;
58015   29.12   0.0      ;
58018   31.86   0.0      ;
58019   32.09   0.0      ;
58067   18.23   0.0      ;
58068   22.44   0.0      ;
58151   14.36   0.0      ;
58152   13.93   0.0      ;
58156   11.16   0.0      ;
58157   11.11   0.604177318011537      ;
58199   27.51   0.0      ;
58200   26.61   0.0      ;
58201   15.04   0.0      ;
58207   32.58   0.0      ;
58208   32.01   5.979656767418032      ;
58210   9.42   0.0      ;
58270   30.05   7.9234018917586075      ;
58271   11.07   0.0      ;
58277   31.08   0.0      ;
58278   30.83   0.0      ;
58307   13.23   0.0      ;
58308   13.23   0.0      ;
58311   22.57   5.791400205327209      ;
58312   22.57   0.0      ;
58313   8.63   0.0      ;
58321   14.08   0.0      ;
58322   14.08   0.0      ;
58325   33.53   0.0      ;
58357   12.46   0.0      ;
58358   11.95   0.0      ;
58367   8.64   0.0      ;
58399   11.29   0.0      ;
58405   29.03   0.0      ;
58406   13.98   0.0      ;
58413   28.75   0.0      ;
58414   28.03   0.0      ;
58418   8.87   0.0      ;
58419   8.87   0.0      ;
58446   11.0   0.0      ;
58447   13.72   3.1987597871013365      ;
58501   17.74   0.0      ;
58502   17.74   0.0      ;
58510   31.29   0.0      ;
58511   32.12   0.0      ;
58540   8.64   0.0      ;
58541   9.1   0.0      ;
58543   29.19   0.0      ;
58544   29.19   0.0      ;
58554   32.04   0.0      ;
58555   32.21   0.0      ;
58582   26.23   0.0      ;
58583   26.23   0.0      ;
58584   10.83   0.0      ;
58585   11.22   0.0      ;
58586   12.76   0.0      ;
58587   12.92   0.0      ;
58590   23.86   0.0      ;
58591   23.41   0.0      ;
58592   30.69   0.0      ;
58600   13.39   0.0      ;
58601   13.39   0.0      ;
58628   12.8   0.0      ;
58629   11.74   0.0      ;
58638   32.27   0.0      ;
58639   33.79   0.0      ;
58640   30.33   0.0      ;
58641   30.2   0.0      ;
58647   9.93   0.0      ;
58648   13.51   0.0      ;
58676   9.56   0.0      ;
58677   9.93   0.0      ;
58684   10.45   0.0      ;
58685   10.76   3.05697252529262      ;
58686   34.19   0.0      ;
58689   20.06   0.0      ;
58690   18.1   0.0      ;
58723   12.04   0.0      ;
58726   12.15   0.0      ;
58727   12.71   0.0      ;
58736   9.23   0.0      ;
58737   9.53   0.0      ;
58738   24.68   4.693404381698796      ;
58739   24.44   8.481994222380166      ;
58743   14.07   0.0      ;
58769   32.24   0.0      ;
58770   33.33   0.0      ;
58771   14.48   0.0      ;
58772   12.48   3.9828166833978034      ;
58777   29.11   0.0      ;
58778   19.39   0.0      ;
58780   10.04   0.0      ;
58781   9.49   0.0      ;
58786   8.02   0.0      ;
58787   8.83   0.0      ;
58842   8.73   0.0      ;
58845   12.64   0.0      ;
58847   28.75   4.721749351712567      ;
58848   28.63   0.0      ;
58929   12.82   0.0      ;
58930   12.7   0.0      ;
58931   12.39   0.0      ;
58937   14.72   0.0      ;
58940   12.84   0.0      ;
58943   11.18   0.0      ;
58944   10.03   0.0      ;
58947   11.38   0.0      ;
58948   10.28   0.0      ;
58949   20.19   3.943437582427561      ;
58977   10.13   0.0      ;
58978   10.13   0.0      ;